<?xml version="1.0" encoding="utf-8"?>
<!--
  #%L
  BDI-ABM Integration Package
  %%
  Copyright (C) 2014 - 2015 by its authors. See AUTHORS file.
  %%
  This program is free software: you can redistribute it and/or modify
  it under the terms of the GNU Lesser General Public License as
  published by the Free Software Foundation, either version 3 of the
  License, or (at your option) any later version.
  
  This program is distributed in the hope that it will be useful,
  but WITHOUT ANY WARRANTY; without even the implied warranty of
  MERCHANTABILITY or FITNESS FOR A PARTICULAR PURPOSE.  See the
  GNU General Lesser Public License for more details.
  
  You should have received a copy of the GNU General Lesser Public
  License along with this program.  If not, see
  <http://www.gnu.org/licenses/lgpl-3.0.html>.
  #L%
  -->

<!DOCTYPE population SYSTEM "http://www.matsim.org/files/dtd/population_v5.dtd">

<population>

<!-- ====================================================================== -->

	<person id="1" employed="no">
		<plan selected="yes">
			<act type="home" x="147.06337495000002" y="-36.883161789999974" end_time="06:00:00" />
			<leg mode="car">
			</leg>
			<act type="home" x="147.06337495000002" y="-36.883161789999974" />
		</plan>

	</person>

<!-- ====================================================================== -->

	<person id="10" employed="no">
		<plan selected="yes">
			<act type="home" x="147.06494925000004" y="-36.89338687999998" end_time="06:00:00" />
			<leg mode="car">
			</leg>
			<act type="home" x="147.06494925000004" y="-36.89338687999998" />
		</plan>

	</person>

<!-- ====================================================================== -->

	<person id="100" employed="no">
		<plan selected="yes">
			<act type="home" x="147.06412922000004" y="-36.89234608999999" end_time="06:00:00" />
			<leg mode="car">
			</leg>
			<act type="home" x="147.06412922000004" y="-36.89234608999999" />
		</plan>

	</person>

<!-- ====================================================================== -->

	<person id="11" employed="no">
		<plan selected="yes">
			<act type="home" x="147.06454222000002" y="-36.89224945000001" end_time="06:00:00" />
			<leg mode="car">
			</leg>
			<act type="home" x="147.06454222000002" y="-36.89224945000001" />
		</plan>

	</person>

<!-- ====================================================================== -->

	<person id="12" employed="no">
		<plan selected="yes">
			<act type="home" x="147.06515134999995" y="-36.89295956000001" end_time="06:00:00" />
			<leg mode="car">
			</leg>
			<act type="home" x="147.06515134999995" y="-36.89295956000001" />
		</plan>

	</person>

<!-- ====================================================================== -->

	<person id="13" employed="no">
		<plan selected="yes">
			<act type="home" x="147.069784336" y="-36.861349752000024" end_time="06:00:00" />
			<leg mode="car">
			</leg>
			<act type="home" x="147.069784336" y="-36.861349752000024" />
		</plan>

	</person>

<!-- ====================================================================== -->

	<person id="14" employed="no">
		<plan selected="yes">
			<act type="home" x="147.06581677999998" y="-36.88293045" end_time="06:00:00" />
			<leg mode="car">
			</leg>
			<act type="home" x="147.06581677999998" y="-36.88293045" />
		</plan>

	</person>

<!-- ====================================================================== -->

	<person id="15" employed="no">
		<plan selected="yes">
			<act type="home" x="147.06307088999995" y="-36.88146279" end_time="06:00:00" />
			<leg mode="car">
			</leg>
			<act type="home" x="147.06307088999995" y="-36.88146279" />
		</plan>

	</person>

<!-- ====================================================================== -->

	<person id="16" employed="no">
		<plan selected="yes">
			<act type="home" x="147.06480165000005" y="-36.88596904000002" end_time="06:00:00" />
			<leg mode="car">
			</leg>
			<act type="home" x="147.06480165000005" y="-36.88596904000002" />
		</plan>

	</person>

<!-- ====================================================================== -->

	<person id="17" employed="no">
		<plan selected="yes">
			<act type="home" x="147.06485513999996" y="-36.893054380000024" end_time="06:00:00" />
			<leg mode="car">
			</leg>
			<act type="home" x="147.06485513999996" y="-36.893054380000024" />
		</plan>

	</person>

<!-- ====================================================================== -->

	<person id="18" employed="no">
		<plan selected="yes">
			<act type="home" x="147.06272638999997" y="-36.89388475999999" end_time="06:00:00" />
			<leg mode="car">
			</leg>
			<act type="home" x="147.06272638999997" y="-36.89388475999999" />
		</plan>

	</person>

<!-- ====================================================================== -->

	<person id="19" employed="no">
		<plan selected="yes">
			<act type="home" x="147.06352705400002" y="-36.88349407499999" end_time="06:00:00" />
			<leg mode="car">
			</leg>
			<act type="home" x="147.06352705400002" y="-36.88349407499999" />
		</plan>

	</person>

<!-- ====================================================================== -->

	<person id="2" employed="no">
		<plan selected="yes">
			<act type="home" x="147.08364538" y="-36.85148805" end_time="06:00:00" />
			<leg mode="car">
			</leg>
			<act type="home" x="147.08364538" y="-36.85148805" />
		</plan>

	</person>

<!-- ====================================================================== -->

	<person id="20" employed="no">
		<plan selected="yes">
			<act type="home" x="147.06436175" y="-36.88455348000002" end_time="06:00:00" />
			<leg mode="car">
			</leg>
			<act type="home" x="147.06436175" y="-36.88455348000002" />
		</plan>

	</person>

<!-- ====================================================================== -->

	<person id="21" employed="no">
		<plan selected="yes">
			<act type="home" x="147.07093634" y="-36.892987800000014" end_time="06:00:00" />
			<leg mode="car">
			</leg>
			<act type="home" x="147.07093634" y="-36.892987800000014" />
		</plan>

	</person>

<!-- ====================================================================== -->

	<person id="22" employed="no">
		<plan selected="yes">
			<act type="home" x="147.05550512699995" y="-36.90136501400002" end_time="06:00:00" />
			<leg mode="car">
			</leg>
			<act type="home" x="147.05550512699995" y="-36.90136501400002" />
		</plan>

	</person>

<!-- ====================================================================== -->

	<person id="23" employed="no">
		<plan selected="yes">
			<act type="home" x="147.0637114" y="-36.870955330000015" end_time="06:00:00" />
			<leg mode="car">
			</leg>
			<act type="home" x="147.0637114" y="-36.870955330000015" />
		</plan>

	</person>

<!-- ====================================================================== -->

	<person id="24" employed="no">
		<plan selected="yes">
			<act type="home" x="147.06377712000005" y="-36.88447482999999" end_time="06:00:00" />
			<leg mode="car">
			</leg>
			<act type="home" x="147.06377712000005" y="-36.88447482999999" />
		</plan>

	</person>

<!-- ====================================================================== -->

	<person id="25" employed="no">
		<plan selected="yes">
			<act type="home" x="147.06382530999997" y="-36.89129154" end_time="06:00:00" />
			<leg mode="car">
			</leg>
			<act type="home" x="147.06382530999997" y="-36.89129154" />
		</plan>

	</person>

<!-- ====================================================================== -->

	<person id="26" employed="no">
		<plan selected="yes">
			<act type="home" x="147.07160550000003" y="-36.89410867999999" end_time="06:00:00" />
			<leg mode="car">
			</leg>
			<act type="home" x="147.07160550000003" y="-36.89410867999999" />
		</plan>

	</person>

<!-- ====================================================================== -->

	<person id="27" employed="no">
		<plan selected="yes">
			<act type="home" x="147.06112364" y="-36.896775279999986" end_time="06:00:00" />
			<leg mode="car">
			</leg>
			<act type="home" x="147.06112364" y="-36.896775279999986" />
		</plan>

	</person>

<!-- ====================================================================== -->

	<person id="28" employed="no">
		<plan selected="yes">
			<act type="home" x="147.05481200999998" y="-36.90199131999998" end_time="06:00:00" />
			<leg mode="car">
			</leg>
			<act type="home" x="147.05481200999998" y="-36.90199131999998" />
		</plan>

	</person>

<!-- ====================================================================== -->

	<person id="29" employed="no">
		<plan selected="yes">
			<act type="home" x="147.05915816000004" y="-36.898678870000026" end_time="06:00:00" />
			<leg mode="car">
			</leg>
			<act type="home" x="147.05915816000004" y="-36.898678870000026" />
		</plan>

	</person>

<!-- ====================================================================== -->

	<person id="3" employed="no">
		<plan selected="yes">
			<act type="home" x="147.06458558999998" y="-36.885423730000014" end_time="06:00:00" />
			<leg mode="car">
			</leg>
			<act type="home" x="147.06458558999998" y="-36.885423730000014" />
		</plan>

	</person>

<!-- ====================================================================== -->

	<person id="30" employed="no">
		<plan selected="yes">
			<act type="home" x="147.09046950000004" y="-36.854100010000025" end_time="06:00:00" />
			<leg mode="car">
			</leg>
			<act type="home" x="147.09046950000004" y="-36.854100010000025" />
		</plan>

	</person>

<!-- ====================================================================== -->

	<person id="31" employed="no">
		<plan selected="yes">
			<act type="home" x="147.07247688999996" y="-36.893406879999986" end_time="06:00:00" />
			<leg mode="car">
			</leg>
			<act type="home" x="147.07247688999996" y="-36.893406879999986" />
		</plan>

	</person>

<!-- ====================================================================== -->

	<person id="32" employed="no">
		<plan selected="yes">
			<act type="home" x="147.06693193" y="-36.89087876999997" end_time="06:00:00" />
			<leg mode="car">
			</leg>
			<act type="home" x="147.06693193" y="-36.89087876999997" />
		</plan>

	</person>

<!-- ====================================================================== -->

	<person id="33" employed="no">
		<plan selected="yes">
			<act type="home" x="147.06307088999995" y="-36.88146279" end_time="06:00:00" />
			<leg mode="car">
			</leg>
			<act type="home" x="147.06307088999995" y="-36.88146279" />
		</plan>

	</person>

<!-- ====================================================================== -->

	<person id="34" employed="no">
		<plan selected="yes">
			<act type="home" x="147.07949679" y="-36.84883556" end_time="06:00:00" />
			<leg mode="car">
			</leg>
			<act type="home" x="147.07949679" y="-36.84883556" />
		</plan>

	</person>

<!-- ====================================================================== -->

	<person id="35" employed="no">
		<plan selected="yes">
			<act type="home" x="147.06567197000004" y="-36.90410792" end_time="06:00:00" />
			<leg mode="car">
			</leg>
			<act type="home" x="147.06567197000004" y="-36.90410792" />
		</plan>

	</person>

<!-- ====================================================================== -->

	<person id="36" employed="no">
		<plan selected="yes">
			<act type="home" x="147.0647795" y="-36.89543373999999" end_time="06:00:00" />
			<leg mode="car">
			</leg>
			<act type="home" x="147.0647795" y="-36.89543373999999" />
		</plan>

	</person>

<!-- ====================================================================== -->

	<person id="37" employed="no">
		<plan selected="yes">
			<act type="home" x="147.07222307999996" y="-36.89374528000002" end_time="06:00:00" />
			<leg mode="car">
			</leg>
			<act type="home" x="147.07222307999996" y="-36.89374528000002" />
		</plan>

	</person>

<!-- ====================================================================== -->

	<person id="38" employed="no">
		<plan selected="yes">
			<act type="home" x="147.04541292" y="-36.90603912" end_time="06:00:00" />
			<leg mode="car">
			</leg>
			<act type="home" x="147.04541292" y="-36.90603912" />
		</plan>

	</person>

<!-- ====================================================================== -->

	<person id="39" employed="no">
		<plan selected="yes">
			<act type="home" x="147.06281015000002" y="-36.89063298000002" end_time="06:00:00" />
			<leg mode="car">
			</leg>
			<act type="home" x="147.06281015000002" y="-36.89063298000002" />
		</plan>

	</person>

<!-- ====================================================================== -->

	<person id="4" employed="no">
		<plan selected="yes">
			<act type="home" x="147.07124382999996" y="-36.892715829999986" end_time="06:00:00" />
			<leg mode="car">
			</leg>
			<act type="home" x="147.07124382999996" y="-36.892715829999986" />
		</plan>

	</person>

<!-- ====================================================================== -->

	<person id="40" employed="no">
		<plan selected="yes">
			<act type="home" x="147.05515749000006" y="-36.90246137999998" end_time="06:00:00" />
			<leg mode="car">
			</leg>
			<act type="home" x="147.05515749000006" y="-36.90246137999998" />
		</plan>

	</person>

<!-- ====================================================================== -->

	<person id="41" employed="no">
		<plan selected="yes">
			<act type="home" x="147.06743365" y="-36.89302230999999" end_time="06:00:00" />
			<leg mode="car">
			</leg>
			<act type="home" x="147.06743365" y="-36.89302230999999" />
		</plan>

	</person>

<!-- ====================================================================== -->

	<person id="42" employed="no">
		<plan selected="yes">
			<act type="home" x="147.05505398000003" y="-36.897851960000025" end_time="06:00:00" />
			<leg mode="car">
			</leg>
			<act type="home" x="147.05505398000003" y="-36.897851960000025" />
		</plan>

	</person>

<!-- ====================================================================== -->

	<person id="43" employed="no">
		<plan selected="yes">
			<act type="home" x="147.07391675999997" y="-36.886021519999986" end_time="06:00:00" />
			<leg mode="car">
			</leg>
			<act type="home" x="147.07391675999997" y="-36.886021519999986" />
		</plan>

	</person>

<!-- ====================================================================== -->

	<person id="44" employed="no">
		<plan selected="yes">
			<act type="home" x="147.06327020000003" y="-36.89921091999997" end_time="06:00:00" />
			<leg mode="car">
			</leg>
			<act type="home" x="147.06327020000003" y="-36.89921091999997" />
		</plan>

	</person>

<!-- ====================================================================== -->

	<person id="45" employed="no">
		<plan selected="yes">
			<act type="home" x="147.06430678000004" y="-36.88444659999999" end_time="06:00:00" />
			<leg mode="car">
			</leg>
			<act type="home" x="147.06430678000004" y="-36.88444659999999" />
		</plan>

	</person>

<!-- ====================================================================== -->

	<person id="46" employed="no">
		<plan selected="yes">
			<act type="home" x="147.06352705400002" y="-36.88349407499999" end_time="06:00:00" />
			<leg mode="car">
			</leg>
			<act type="home" x="147.06352705400002" y="-36.88349407499999" />
		</plan>

	</person>

<!-- ====================================================================== -->

	<person id="47" employed="no">
		<plan selected="yes">
			<act type="home" x="147.06357726" y="-36.88099212999998" end_time="06:00:00" />
			<leg mode="car">
			</leg>
			<act type="home" x="147.06357726" y="-36.88099212999998" />
		</plan>

	</person>

<!-- ====================================================================== -->

	<person id="48" employed="no">
		<plan selected="yes">
			<act type="home" x="147.06319413999995" y="-36.87959282000003" end_time="06:00:00" />
			<leg mode="car">
			</leg>
			<act type="home" x="147.06319413999995" y="-36.87959282000003" />
		</plan>

	</person>

<!-- ====================================================================== -->

	<person id="49" employed="no">
		<plan selected="yes">
			<act type="home" x="147.07304096999997" y="-36.89102403999999" end_time="06:00:00" />
			<leg mode="car">
			</leg>
			<act type="home" x="147.07304096999997" y="-36.89102403999999" />
		</plan>

	</person>

<!-- ====================================================================== -->

	<person id="5" employed="no">
		<plan selected="yes">
			<act type="home" x="147.07304821000002" y="-36.89343041000001" end_time="06:00:00" />
			<leg mode="car">
			</leg>
			<act type="home" x="147.07304821000002" y="-36.89343041000001" />
		</plan>

	</person>

<!-- ====================================================================== -->

	<person id="50" employed="no">
		<plan selected="yes">
			<act type="home" x="147.06365989999995" y="-36.897537279999995" end_time="06:00:00" />
			<leg mode="car">
			</leg>
			<act type="home" x="147.06365989999995" y="-36.897537279999995" />
		</plan>

	</person>

<!-- ====================================================================== -->

	<person id="51" employed="no">
		<plan selected="yes">
			<act type="home" x="147.05804817" y="-36.894024650000006" end_time="06:00:00" />
			<leg mode="car">
			</leg>
			<act type="home" x="147.05804817" y="-36.894024650000006" />
		</plan>

	</person>

<!-- ====================================================================== -->

	<person id="52" employed="no">
		<plan selected="yes">
			<act type="home" x="147.05545322" y="-36.901605010000026" end_time="06:00:00" />
			<leg mode="car">
			</leg>
			<act type="home" x="147.05545322" y="-36.901605010000026" />
		</plan>

	</person>

<!-- ====================================================================== -->

	<person id="53" employed="no">
		<plan selected="yes">
			<act type="home" x="147.07710268999995" y="-36.89623992000003" end_time="06:00:00" />
			<leg mode="car">
			</leg>
			<act type="home" x="147.07710268999995" y="-36.89623992000003" />
		</plan>

	</person>

<!-- ====================================================================== -->

	<person id="54" employed="no">
		<plan selected="yes">
			<act type="home" x="147.06567197000004" y="-36.90410792" end_time="06:00:00" />
			<leg mode="car">
			</leg>
			<act type="home" x="147.06567197000004" y="-36.90410792" />
		</plan>

	</person>

<!-- ====================================================================== -->

	<person id="55" employed="no">
		<plan selected="yes">
			<act type="home" x="147.06372785999997" y="-36.92707601000001" end_time="06:00:00" />
			<leg mode="car">
			</leg>
			<act type="home" x="147.06372785999997" y="-36.92707601000001" />
		</plan>

	</person>

<!-- ====================================================================== -->

	<person id="56" employed="no">
		<plan selected="yes">
			<act type="home" x="147.05835680999996" y="-36.89950780999999" end_time="06:00:00" />
			<leg mode="car">
			</leg>
			<act type="home" x="147.05835680999996" y="-36.89950780999999" />
		</plan>

	</person>

<!-- ====================================================================== -->

	<person id="57" employed="no">
		<plan selected="yes">
			<act type="home" x="147.07166231999997" y="-36.894476680000025" end_time="06:00:00" />
			<leg mode="car">
			</leg>
			<act type="home" x="147.07166231999997" y="-36.894476680000025" />
		</plan>

	</person>

<!-- ====================================================================== -->

	<person id="58" employed="no">
		<plan selected="yes">
			<act type="home" x="147.06598707" y="-36.89712773999997" end_time="06:00:00" />
			<leg mode="car">
			</leg>
			<act type="home" x="147.06598707" y="-36.89712773999997" />
		</plan>

	</person>

<!-- ====================================================================== -->

	<person id="59" employed="no">
		<plan selected="yes">
			<act type="home" x="147.06613937999998" y="-36.89027212000002" end_time="06:00:00" />
			<leg mode="car">
			</leg>
			<act type="home" x="147.06613937999998" y="-36.89027212000002" />
		</plan>

	</person>

<!-- ====================================================================== -->

	<person id="6" employed="no">
		<plan selected="yes">
			<act type="home" x="147.06302446999996" y="-36.877045450000026" end_time="06:00:00" />
			<leg mode="car">
			</leg>
			<act type="home" x="147.06302446999996" y="-36.877045450000026" />
		</plan>

	</person>

<!-- ====================================================================== -->

	<person id="60" employed="no">
		<plan selected="yes">
			<act type="home" x="147.07281694999995" y="-36.89375709000001" end_time="06:00:00" />
			<leg mode="car">
			</leg>
			<act type="home" x="147.07281694999995" y="-36.89375709000001" />
		</plan>

	</person>

<!-- ====================================================================== -->

	<person id="61" employed="no">
		<plan selected="yes">
			<act type="home" x="147.06320061999998" y="-36.87894961000001" end_time="06:00:00" />
			<leg mode="car">
			</leg>
			<act type="home" x="147.06320061999998" y="-36.87894961000001" />
		</plan>

	</person>

<!-- ====================================================================== -->

	<person id="62" employed="no">
		<plan selected="yes">
			<act type="home" x="147.06430678000004" y="-36.88444659999999" end_time="06:00:00" />
			<leg mode="car">
			</leg>
			<act type="home" x="147.06430678000004" y="-36.88444659999999" />
		</plan>

	</person>

<!-- ====================================================================== -->

	<person id="63" employed="no">
		<plan selected="yes">
			<act type="home" x="147.06613937999998" y="-36.89027212000002" end_time="06:00:00" />
			<leg mode="car">
			</leg>
			<act type="home" x="147.06613937999998" y="-36.89027212000002" />
		</plan>

	</person>

<!-- ====================================================================== -->

	<person id="64" employed="no">
		<plan selected="yes">
			<act type="home" x="147.06419442699996" y="-36.88980393700001" end_time="06:00:00" />
			<leg mode="car">
			</leg>
			<act type="home" x="147.06419442699996" y="-36.88980393700001" />
		</plan>

	</person>

<!-- ====================================================================== -->

	<person id="65" employed="no">
		<plan selected="yes">
			<act type="home" x="147.06658774000005" y="-36.89665034000001" end_time="06:00:00" />
			<leg mode="car">
			</leg>
			<act type="home" x="147.06658774000005" y="-36.89665034000001" />
		</plan>

	</person>

<!-- ====================================================================== -->

	<person id="66" employed="no">
		<plan selected="yes">
			<act type="home" x="147.06400481000003" y="-36.89799196000001" end_time="06:00:00" />
			<leg mode="car">
			</leg>
			<act type="home" x="147.06400481000003" y="-36.89799196000001" />
		</plan>

	</person>

<!-- ====================================================================== -->

	<person id="67" employed="no">
		<plan selected="yes">
			<act type="home" x="147.07296395000003" y="-36.89373155999999" end_time="06:00:00" />
			<leg mode="car">
			</leg>
			<act type="home" x="147.07296395000003" y="-36.89373155999999" />
		</plan>

	</person>

<!-- ====================================================================== -->

	<person id="68" employed="no">
		<plan selected="yes">
			<act type="home" x="147.06501134999996" y="-36.886726469999985" end_time="06:00:00" />
			<leg mode="car">
			</leg>
			<act type="home" x="147.06501134999996" y="-36.886726469999985" />
		</plan>

	</person>

<!-- ====================================================================== -->

	<person id="69" employed="no">
		<plan selected="yes">
			<act type="home" x="147.06084323000005" y="-36.893586519999985" end_time="06:00:00" />
			<leg mode="car">
			</leg>
			<act type="home" x="147.06084323000005" y="-36.893586519999985" />
		</plan>

	</person>

<!-- ====================================================================== -->

	<person id="7" employed="no">
		<plan selected="yes">
			<act type="home" x="147.05915873000004" y="-36.900028099999986" end_time="06:00:00" />
			<leg mode="car">
			</leg>
			<act type="home" x="147.05915873000004" y="-36.900028099999986" />
		</plan>

	</person>

<!-- ====================================================================== -->

	<person id="70" employed="no">
		<plan selected="yes">
			<act type="home" x="147.06406488000005" y="-36.89250157999999" end_time="06:00:00" />
			<leg mode="car">
			</leg>
			<act type="home" x="147.06406488000005" y="-36.89250157999999" />
		</plan>

	</person>

<!-- ====================================================================== -->

	<person id="71" employed="no">
		<plan selected="yes">
			<act type="home" x="147.06379997" y="-36.88255208999999" end_time="06:00:00" />
			<leg mode="car">
			</leg>
			<act type="home" x="147.06379997" y="-36.88255208999999" />
		</plan>

	</person>

<!-- ====================================================================== -->

	<person id="72" employed="no">
		<plan selected="yes">
			<act type="home" x="147.06609185000002" y="-36.89350084" end_time="06:00:00" />
			<leg mode="car">
			</leg>
			<act type="home" x="147.06609185000002" y="-36.89350084" />
		</plan>

	</person>

<!-- ====================================================================== -->

	<person id="73" employed="no">
		<plan selected="yes">
			<act type="home" x="147.06426654999996" y="-36.887567219999994" end_time="06:00:00" />
			<leg mode="car">
			</leg>
			<act type="home" x="147.06426654999996" y="-36.887567219999994" />
		</plan>

	</person>

<!-- ====================================================================== -->

	<person id="74" employed="no">
		<plan selected="yes">
			<act type="home" x="147.06361177999997" y="-36.884021210000014" end_time="06:00:00" />
			<leg mode="car">
			</leg>
			<act type="home" x="147.06361177999997" y="-36.884021210000014" />
		</plan>

	</person>

<!-- ====================================================================== -->

	<person id="75" employed="no">
		<plan selected="yes">
			<act type="home" x="147.08039208000002" y="-36.854546500000026" end_time="06:00:00" />
			<leg mode="car">
			</leg>
			<act type="home" x="147.08039208000002" y="-36.854546500000026" />
		</plan>

	</person>

<!-- ====================================================================== -->

	<person id="76" employed="no">
		<plan selected="yes">
			<act type="home" x="147.06470420000005" y="-36.889569979999976" end_time="06:00:00" />
			<leg mode="car">
			</leg>
			<act type="home" x="147.06470420000005" y="-36.889569979999976" />
		</plan>

	</person>

<!-- ====================================================================== -->

	<person id="77" employed="no">
		<plan selected="yes">
			<act type="home" x="147.07304096999997" y="-36.89102403999999" end_time="06:00:00" />
			<leg mode="car">
			</leg>
			<act type="home" x="147.07304096999997" y="-36.89102403999999" />
		</plan>

	</person>

<!-- ====================================================================== -->

	<person id="78" employed="no">
		<plan selected="yes">
			<act type="home" x="147.0647795" y="-36.89543373999999" end_time="06:00:00" />
			<leg mode="car">
			</leg>
			<act type="home" x="147.0647795" y="-36.89543373999999" />
		</plan>

	</person>

<!-- ====================================================================== -->

	<person id="79" employed="no">
		<plan selected="yes">
			<act type="home" x="147.07128421000004" y="-36.89478746999998" end_time="06:00:00" />
			<leg mode="car">
			</leg>
			<act type="home" x="147.07128421000004" y="-36.89478746999998" />
		</plan>

	</person>

<!-- ====================================================================== -->

	<person id="8" employed="no">
		<plan selected="yes">
			<act type="home" x="147.06454339000004" y="-36.890577689999986" end_time="06:00:00" />
			<leg mode="car">
			</leg>
			<act type="home" x="147.06454339000004" y="-36.890577689999986" />
		</plan>

	</person>

<!-- ====================================================================== -->

	<person id="80" employed="no">
		<plan selected="yes">
			<act type="home" x="147.05845049000004" y="-36.90108472999998" end_time="06:00:00" />
			<leg mode="car">
			</leg>
			<act type="home" x="147.05845049000004" y="-36.90108472999998" />
		</plan>

	</person>

<!-- ====================================================================== -->

	<person id="81" employed="no">
		<plan selected="yes">
			<act type="home" x="147.09046950000004" y="-36.854100010000025" end_time="06:00:00" />
			<leg mode="car">
			</leg>
			<act type="home" x="147.09046950000004" y="-36.854100010000025" />
		</plan>

	</person>

<!-- ====================================================================== -->

	<person id="82" employed="no">
		<plan selected="yes">
			<act type="home" x="147.06307088999995" y="-36.88146279" end_time="06:00:00" />
			<leg mode="car">
			</leg>
			<act type="home" x="147.06307088999995" y="-36.88146279" />
		</plan>

	</person>

<!-- ====================================================================== -->

	<person id="83" employed="no">
		<plan selected="yes">
			<act type="home" x="147.06864786000006" y="-36.87857186000002" end_time="06:00:00" />
			<leg mode="car">
			</leg>
			<act type="home" x="147.06864786000006" y="-36.87857186000002" />
		</plan>

	</person>

<!-- ====================================================================== -->

	<person id="84" employed="no">
		<plan selected="yes">
			<act type="home" x="147.05568460100005" y="-36.901202667999996" end_time="06:00:00" />
			<leg mode="car">
			</leg>
			<act type="home" x="147.05568460100005" y="-36.901202667999996" />
		</plan>

	</person>

<!-- ====================================================================== -->

	<person id="85" employed="no">