<?xml version="1.0" encoding="utf-8"?>
<!DOCTYPE population SYSTEM "http://www.matsim.org/files/dtd/population_v6.dtd">

<population>

<!-- ====================================================================== -->

	<person id="0">
		<attributes>
			<attribute name="BDIAgentType" class="java.lang.String" >io.github.agentsoz.ees.agents.bushfire.Resident</attribute>
			<attribute name="InitialResponseThreshold" class="java.lang.Double" >0.0</attribute>
			<attribute name="FinalResponseThreshold"   class="java.lang.Double" >0.0</attribute>
			<attribute name="EvacLocationPreference" class="java.lang.String">Harcourt,255934,5901133</attribute>
		</attributes>
		<plan selected="yes">
			<activity type="home" x="239034.90777891254" y="5901495.672019738" end_time="23:59:59" />
			<leg mode="car">
			</leg>
			<activity type="home" x="239034.90777891254" y="5901495.672019738" />
		</plan>

	</person>

<!-- ====================================================================== -->

	<person id="1">
		<attributes>
			<attribute name="BDIAgentType" class="java.lang.String" >io.github.agentsoz.ees.agents.bushfire.Resident</attribute>
			<attribute name="InitialResponseThreshold" class="java.lang.Double" >0.0</attribute>
			<attribute name="FinalResponseThreshold"   class="java.lang.Double" >0.0</attribute>
			<attribute name="EvacLocationPreference" class="java.lang.String">Harcourt,255934,5901133</attribute>
		</attributes>
		<plan selected="yes">
			<activity type="home" x="239482.42823087002" y="5902012.312011034" end_time="23:59:59" />
			<leg mode="car">
			</leg>
			<activity type="home" x="239482.42823087002" y="5902012.312011034" />
		</plan>

	</person>

<!-- ====================================================================== -->

	<person id="2">
		<attributes>
			<attribute name="BDIAgentType" class="java.lang.String" >io.github.agentsoz.ees.agents.bushfire.Resident</attribute>
			<attribute name="InitialResponseThreshold" class="java.lang.Double" >0.0</attribute>
			<attribute name="FinalResponseThreshold"   class="java.lang.Double" >0.0</attribute>
			<attribute name="EvacLocationPreference" class="java.lang.String">Harcourt,255934,5901133</attribute>
		</attributes>
		<plan selected="yes">
			<activity type="home" x="238651.30035446424" y="5901927.5049373675" end_time="23:59:59" />
			<leg mode="car">
			</leg>
			<activity type="home" x="238651.30035446424" y="5901927.5049373675" />
		</plan>

	</person>

<!-- ====================================================================== -->

	<person id="3">
		<attributes>
			<attribute name="BDIAgentType" class="java.lang.String" >io.github.agentsoz.ees.agents.bushfire.Resident</attribute>
			<attribute name="InitialResponseThreshold" class="java.lang.Double" >0.0</attribute>
			<attribute name="FinalResponseThreshold"   class="java.lang.Double" >0.0</attribute>
			<attribute name="EvacLocationPreference" class="java.lang.String">Harcourt,255934,5901133</attribute>
		</attributes>
		<plan selected="yes">
			<activity type="home" x="238794.22247575267" y="5902297.057038632" end_time="23:59:59" />
			<leg mode="car">
			</leg>
			<activity type="home" x="238794.22247575267" y="5902297.057038632" />
		</plan>

	</person>

<!-- ====================================================================== -->

	<person id="4">
		<attributes>
			<attribute name="BDIAgentType" class="java.lang.String" >io.github.agentsoz.ees.agents.bushfire.Resident</attribute>
			<attribute name="InitialResponseThreshold" class="java.lang.Double" >0.0</attribute>
			<attribute name="FinalResponseThreshold"   class="java.lang.Double" >0.0</attribute>
			<attribute name="EvacLocationPreference" class="java.lang.String">Harcourt,255934,5901133</attribute>
		</attributes>
		<plan selected="yes">
			<activity type="home" x="238389.5978670712" y="5902130.657433513" end_time="23:59:59" />
			<leg mode="car">
			</leg>
			<activity type="home" x="238389.5978670712" y="5902130.657433513" />
		</plan>

	</person>

<!-- ====================================================================== -->

	<person id="5">
		<attributes>
			<attribute name="BDIAgentType" class="java.lang.String" >io.github.agentsoz.ees.agents.bushfire.Resident</attribute>
			<attribute name="InitialResponseThreshold" class="java.lang.Double" >0.0</attribute>
			<attribute name="FinalResponseThreshold"   class="java.lang.Double" >0.0</attribute>
			<attribute name="EvacLocationPreference" class="java.lang.String">Harcourt,255934,5901133</attribute>
		</attributes>
		<plan selected="yes">
			<activity type="home" x="238963.3166265834" y="5902654.032293237" end_time="23:59:59" />
			<leg mode="car">
			</leg>
			<activity type="home" x="238963.3166265834" y="5902654.032293237" />
		</plan>

	</person>

<!-- ====================================================================== -->

	<person id="6">
		<attributes>
			<attribute name="BDIAgentType" class="java.lang.String" >io.github.agentsoz.ees.agents.bushfire.Resident</attribute>
			<attribute name="InitialResponseThreshold" class="java.lang.Double" >0.0</attribute>
			<attribute name="FinalResponseThreshold"   class="java.lang.Double" >0.0</attribute>
			<attribute name="EvacLocationPreference" class="java.lang.String">Lockwood South,246364,5918800</attribute>
		</attributes>
		<plan selected="yes">
			<activity type="home" x="238142.37630748746" y="5901494.962775561" end_time="23:59:59" />
			<leg mode="car">
			</leg>
			<activity type="home" x="238142.37630748746" y="5901494.962775561" />
		</plan>

	</person>

<!-- ====================================================================== -->

	<person id="7">
		<attributes>
			<attribute name="BDIAgentType" class="java.lang.String" >io.github.agentsoz.ees.agents.bushfire.Resident</attribute>
			<attribute name="InitialResponseThreshold" class="java.lang.Double" >0.0</attribute>
			<attribute name="FinalResponseThreshold"   class="java.lang.Double" >0.0</attribute>
			<attribute name="EvacLocationPreference" class="java.lang.String">Lockwood South,246364,5918800</attribute>
		</attributes>
		<plan selected="yes">
			<activity type="home" x="238524.79062285653" y="5902270.703545782" end_time="23:59:59" />
			<leg mode="car">
			</leg>
			<activity type="home" x="238524.79062285653" y="5902270.703545782" />
		</plan>

	</person>

<!-- ====================================================================== -->

	<person id="8">
		<attributes>
			<attribute name="BDIAgentType" class="java.lang.String" >io.github.agentsoz.ees.agents.bushfire.Resident</attribute>
			<attribute name="InitialResponseThreshold" class="java.lang.Double" >0.0</attribute>
			<attribute name="FinalResponseThreshold"   class="java.lang.Double" >0.0</attribute>
			<attribute name="EvacLocationPreference" class="java.lang.String">Lockwood South,246364,5918800</attribute>
		</attributes>
		<plan selected="yes">
			<activity type="home" x="239485.3168210278" y="5902240.766889413" end_time="23:59:59" />
			<leg mode="car">
			</leg>
			<activity type="home" x="239485.3168210278" y="5902240.766889413" />
		</plan>

	</person>

<!-- ====================================================================== -->

	<person id="9">
		<attributes>
			<attribute name="BDIAgentType" class="java.lang.String" >io.github.agentsoz.ees.agents.bushfire.Resident</attribute>
			<attribute name="InitialResponseThreshold" class="java.lang.Double" >0.0</attribute>
			<attribute name="FinalResponseThreshold"   class="java.lang.Double" >0.0</attribute>
			<attribute name="EvacLocationPreference" class="java.lang.String">Lockwood South,246364,5918800</attribute>
		</attributes>
		<plan selected="yes">
			<activity type="home" x="239416.74438472217" y="5902715.5409970535" end_time="23:59:59" />
			<leg mode="car">
			</leg>
			<activity type="home" x="239416.74438472217" y="5902715.5409970535" />
		</plan>

	</person>

<!-- ====================================================================== -->

	<person id="10">
		<attributes>
			<attribute name="BDIAgentType" class="java.lang.String" >io.github.agentsoz.ees.agents.bushfire.Resident</attribute>
			<attribute name="InitialResponseThreshold" class="java.lang.Double" >0.0</attribute>
			<attribute name="FinalResponseThreshold"   class="java.lang.Double" >0.0</attribute>
			<attribute name="EvacLocationPreference" class="java.lang.String">Lockwood South,246364,5918800</attribute>
		</attributes>
		<plan selected="yes">
			<activity type="home" x="239162.89384953014" y="5902298.798733998" end_time="23:59:59" />
			<leg mode="car">
			</leg>
			<activity type="home" x="239162.89384953014" y="5902298.798733998" />
		</plan>

	</person>

<!-- ====================================================================== -->

	<person id="11">
		<attributes>
			<attribute name="BDIAgentType" class="java.lang.String" >io.github.agentsoz.ees.agents.bushfire.Resident</attribute>
			<attribute name="InitialResponseThreshold" class="java.lang.Double" >0.0</attribute>
			<attribute name="FinalResponseThreshold"   class="java.lang.Double" >0.0</attribute>
			<attribute name="EvacLocationPreference" class="java.lang.String">Lockwood South,246364,5918800</attribute>
		</attributes>
		<plan selected="yes">
			<activity type="home" x="239236.8563685473" y="5901887.877882006" end_time="23:59:59" />
			<leg mode="car">
			</leg>
			<activity type="home" x="239236.8563685473" y="5901887.877882006" />
		</plan>

	</person>

<!-- ====================================================================== -->

	<person id="12">
		<attributes>
			<attribute name="BDIAgentType" class="java.lang.String" >io.github.agentsoz.ees.agents.bushfire.Resident</attribute>
			<attribute name="InitialResponseThreshold" class="java.lang.Double" >0.0</attribute>
			<attribute name="FinalResponseThreshold"   class="java.lang.Double" >0.0</attribute>
			<attribute name="EvacLocationPreference" class="java.lang.String">Lockwood South,246364,5918800</attribute>
		</attributes>
		<plan selected="yes">
			<activity type="home" x="239461.77658562444" y="5901480.122120069" end_time="23:59:59" />
			<leg mode="car">
			</leg>
			<activity type="home" x="239461.77658562444" y="5901480.122120069" />
		</plan>

	</person>

<!-- ====================================================================== -->

	<person id="13">
		<attributes>
			<attribute name="BDIAgentType" class="java.lang.String" >io.github.agentsoz.ees.agents.bushfire.Resident</attribute>
			<attribute name="InitialResponseThreshold" class="java.lang.Double" >0.0</attribute>
			<attribute name="FinalResponseThreshold"   class="java.lang.Double" >0.0</attribute>
			<attribute name="EvacLocationPreference" class="java.lang.String">Lockwood South,246364,5918800</attribute>
		</attributes>
		<plan selected="yes">
			<activity type="home" x="238761.25448822597" y="5901526.215679254" end_time="23:59:59" />
			<leg mode="car">
			</leg>
			<activity type="home" x="238761.25448822597" y="5901526.215679254" />
		</plan>

	</person>

<!-- ====================================================================== -->

	<person id="14">
		<attributes>
			<attribute name="BDIAgentType" class="java.lang.String" >io.github.agentsoz.ees.agents.bushfire.Resident</attribute>
			<attribute name="InitialResponseThreshold" class="java.lang.Double" >0.0</attribute>
			<attribute name="FinalResponseThreshold"   class="java.lang.Double" >0.0</attribute>
			<attribute name="EvacLocationPreference" class="java.lang.String">Lockwood South,246364,5918800</attribute>
		</attributes>
		<plan selected="yes">
			<activity type="home" x="239266.76802430087" y="5901793.32820269" end_time="23:59:59" />
			<leg mode="car">
			</leg>
			<activity type="home" x="239266.76802430087" y="5901793.32820269" />
		</plan>

	</person>

<!-- ====================================================================== -->

	<person id="15">
		<attributes>
			<attribute name="BDIAgentType" class="java.lang.String" >io.github.agentsoz.ees.agents.bushfire.Resident</attribute>
			<attribute name="InitialResponseThreshold" class="java.lang.Double" >0.0</attribute>
			<attribute name="FinalResponseThreshold"   class="java.lang.Double" >0.0</attribute>
			<attribute name="EvacLocationPreference" class="java.lang.String">Lockwood South,246364,5918800</attribute>
		</attributes>
		<plan selected="yes">
			<activity type="home" x="238343.5163822226" y="5902247.0440245485" end_time="23:59:59" />
			<leg mode="car">
			</leg>
			<activity type="home" x="238343.5163822226" y="5902247.0440245485" />
		</plan>

	</person>

<!-- ====================================================================== -->

	<person id="16">
		<attributes>
			<attribute name="BDIAgentType" class="java.lang.String" >io.github.agentsoz.ees.agents.bushfire.Resident</attribute>
			<attribute name="InitialResponseThreshold" class="java.lang.Double" >0.0</attribute>
			<attribute name="FinalResponseThreshold"   class="java.lang.Double" >0.0</attribute>
			<attribute name="EvacLocationPreference" class="java.lang.String">Lockwood South,246364,5918800</attribute>
		</attributes>
		<plan selected="yes">
			<activity type="home" x="238219.57896101818" y="5901475.987164653" end_time="23:59:59" />
			<leg mode="car">
			</leg>
			<activity type="home" x="238219.57896101818" y="5901475.987164653" />
		</plan>

	</person>

<!-- ====================================================================== -->

	<person id="17">
		<attributes>
			<attribute name="BDIAgentType" class="java.lang.String" >io.github.agentsoz.ees.agents.bushfire.Resident</attribute>
			<attribute name="InitialResponseThreshold" class="java.lang.Double" >0.0</attribute>
			<attribute name="FinalResponseThreshold"   class="java.lang.Double" >0.0</attribute>
			<attribute name="EvacLocationPreference" class="java.lang.String">Lockwood South,246364,5918800</attribute>
		</attributes>
		<plan selected="yes">
			<activity type="home" x="238510.78702384973" y="5902460.948858751" end_time="23:59:59" />
			<leg mode="car">
			</leg>
			<activity type="home" x="238510.78702384973" y="5902460.948858751" />
		</plan>

	</person>

<!-- ====================================================================== -->

	<person id="18">
		<attributes>
			<attribute name="BDIAgentType" class="java.lang.String" >io.github.agentsoz.ees.agents.bushfire.Resident</attribute>
			<attribute name="InitialResponseThreshold" class="java.lang.Double" >0.0</attribute>
			<attribute name="FinalResponseThreshold"   class="java.lang.Double" >0.0</attribute>
			<attribute name="EvacLocationPreference" class="java.lang.String">Lockwood South,246364,5918800</attribute>
		</attributes>
		<plan selected="yes">
			<activity type="home" x="238731.79867085244" y="5901823.055660495" end_time="23:59:59" />
			<leg mode="car">
			</leg>
			<activity type="home" x="238731.79867085244" y="5901823.055660495" />
		</plan>

	</person>

<!-- ====================================================================== -->

	<person id="19">
		<attributes>
			<attribute name="BDIAgentType" class="java.lang.String" >io.github.agentsoz.ees.agents.bushfire.Resident</attribute>
			<attribute name="InitialResponseThreshold" class="java.lang.Double" >0.0</attribute>
			<attribute name="FinalResponseThreshold"   class="java.lang.Double" >0.0</attribute>
			<attribute name="EvacLocationPreference" class="java.lang.String">Lockwood South,246364,5918800</attribute>
		</attributes>
		<plan selected="yes">
			<activity type="home" x="238380.87442358318" y="5901778.475056539" end_time="23:59:59" />
			<leg mode="car">
			</leg>
			<activity type="home" x="238380.87442358318" y="5901778.475056539" />
		</plan>

	</person>

<!-- ====================================================================== -->

	<person id="20">
		<attributes>
			<attribute name="BDIAgentType" class="java.lang.String" >io.github.agentsoz.ees.agents.bushfire.Resident</attribute>
			<attribute name="InitialResponseThreshold" class="java.lang.Double" >0.0</attribute>
			<attribute name="FinalResponseThreshold"   class="java.lang.Double" >0.0</attribute>
			<attribute name="EvacLocationPreference" class="java.lang.String">Lockwood South,246364,5918800</attribute>
		</attributes>
		<plan selected="yes">
			<activity type="home" x="239011.41853070908" y="5902494.659356096" end_time="23:59:59" />
			<leg mode="car">
			</leg>
			<activity type="home" x="239011.41853070908" y="5902494.659356096" />
		</plan>

	</person>

<!-- ====================================================================== -->

	<person id="21">
		<attributes>
			<attribute name="BDIAgentType" class="java.lang.String" >io.github.agentsoz.ees.agents.bushfire.Resident</attribute>
			<attribute name="InitialResponseThreshold" class="java.lang.Double" >0.0</attribute>
			<attribute name="FinalResponseThreshold"   class="java.lang.Double" >0.0</attribute>
			<attribute name="EvacLocationPreference" class="java.lang.String">Lockwood South,246364,5918800</attribute>
		</attributes>
		<plan selected="yes">
			<activity type="home" x="238250.5044648321" y="5901780.604007658" end_time="23:59:59" />
			<leg mode="car">
			</leg>
			<activity type="home" x="238250.5044648321" y="5901780.604007658" />
		</plan>

	</person>

<!-- ====================================================================== -->

	<person id="22">
		<attributes>
			<attribute name="BDIAgentType" class="java.lang.String" >io.github.agentsoz.ees.agents.bushfire.Resident</attribute>
			<attribute name="InitialResponseThreshold" class="java.lang.Double" >0.0</attribute>
			<attribute name="FinalResponseThreshold"   class="java.lang.Double" >0.0</attribute>
			<attribute name="EvacLocationPreference" class="java.lang.String">Lockwood South,246364,5918800</attribute>
		</attributes>
		<plan selected="yes">
			<activity type="home" x="239248.04814873985" y="5902202.871682397" end_time="23:59:59" />
			<leg mode="car">
			</leg>
			<activity type="home" x="239248.04814873985" y="5902202.871682397" />
		</plan>

	</person>

<!-- ====================================================================== -->

	<person id="23">
		<attributes>
			<attribute name="BDIAgentType" class="java.lang.String" >io.github.agentsoz.ees.agents.bushfire.Resident</attribute>
			<attribute name="InitialResponseThreshold" class="java.lang.Double" >0.0</attribute>
			<attribute name="FinalResponseThreshold"   class="java.lang.Double" >0.0</attribute>
			<attribute name="EvacLocationPreference" class="java.lang.String">Lockwood South,246364,5918800</attribute>
		</attributes>
		<plan selected="yes">
			<activity type="home" x="239311.13905743542" y="5902425.363649987" end_time="23:59:59" />
			<leg mode="car">
			</leg>
			<activity type="home" x="239311.13905743542" y="5902425.363649987" />
		</plan>

	</person>

<!-- ====================================================================== -->

	<person id="24">
		<attributes>
			<attribute name="BDIAgentType" class="java.lang.String" >io.github.agentsoz.ees.agents.bushfire.Resident</attribute>
			<attribute name="InitialResponseThreshold" class="java.lang.Double" >0.0</attribute>
			<attribute name="FinalResponseThreshold"   class="java.lang.Double" >0.0</attribute>
			<attribute name="EvacLocationPreference" class="java.lang.String">Lockwood South,246364,5918800</attribute>
		</attributes>
		<plan selected="yes">
			<activity type="home" x="237996.08998385083" y="5901734.735267294" end_time="23:59:59" />
			<leg mode="car">
			</leg>
			<activity type="home" x="237996.08998385083" y="5901734.735267294" />
		</plan>

	</person>

<!-- ====================================================================== -->

	<person id="25">
		<attributes>
			<attribute name="BDIAgentType" class="java.lang.String" >io.github.agentsoz.ees.agents.bushfire.Resident</attribute>
			<attribute name="InitialResponseThreshold" class="java.lang.Double" >0.0</attribute>
			<attribute name="FinalResponseThreshold"   class="java.lang.Double" >0.0</attribute>
			<attribute name="EvacLocationPreference" class="java.lang.String">Lockwood South,246364,5918800</attribute>
		</attributes>
		<plan selected="yes">
			<activity type="home" x="238914.35178795547" y="5901563.747148614" end_time="23:59:59" />
			<leg mode="car">
			</leg>
			<activity type="home" x="238914.35178795547" y="5901563.747148614" />
		</plan>

	</person>

<!-- ====================================================================== -->

	<person id="26">
		<attributes>
			<attribute name="BDIAgentType" class="java.lang.String" >io.github.agentsoz.ees.agents.bushfire.Resident</attribute>
			<attribute name="InitialResponseThreshold" class="java.lang.Double" >0.0</attribute>
			<attribute name="FinalResponseThreshold"   class="java.lang.Double" >0.0</attribute>
			<attribute name="EvacLocationPreference" class="java.lang.String">Lockwood South,246364,5918800</attribute>
		</attributes>
		<plan selected="yes">
			<activity type="home" x="238083.06637628452" y="5901752.267815043" end_time="23:59:59" />
			<leg mode="car">
			</leg>
			<activity type="home" x="238083.06637628452" y="5901752.267815043" />
		</plan>

	</person>

<!-- ====================================================================== -->

	<person id="27">
		<attributes>
			<attribute name="BDIAgentType" class="java.lang.String" >io.github.agentsoz.ees.agents.bushfire.Resident</attribute>
			<attribute name="InitialResponseThreshold" class="java.lang.Double" >0.0</attribute>
			<attribute name="FinalResponseThreshold"   class="java.lang.Double" >0.0</attribute>
			<attribute name="EvacLocationPreference" class="java.lang.String">Lockwood South,246364,5918800</attribute>
		</attributes>
		<plan selected="yes">
			<activity type="home" x="237991.7601781293" y="5902031.344046072" end_time="23:59:59" />
			<leg mode="car">
			</leg>
			<activity type="home" x="237991.7601781293" y="5902031.344046072" />
		</plan>

	</person>

<!-- ====================================================================== -->

	<person id="28">
		<attributes>
			<attribute name="BDIAgentType" class="java.lang.String" >io.github.agentsoz.ees.agents.bushfire.Resident</attribute>
			<attribute name="InitialResponseThreshold" class="java.lang.Double" >0.0</attribute>
			<attribute name="FinalResponseThreshold"   class="java.lang.Double" >0.0</attribute>
			<attribute name="EvacLocationPreference" class="java.lang.String">Lockwood South,246364,5918800</attribute>
		</attributes>
		<plan selected="yes">
			<activity type="home" x="238419.90004739742" y="5902548.173184279" end_time="23:59:59" />
			<leg mode="car">
			</leg>
			<activity type="home" x="238419.90004739742" y="5902548.173184279" />
		</plan>

	</person>

<!-- ====================================================================== -->

	<person id="29">
		<attributes>
			<attribute name="BDIAgentType" class="java.lang.String" >io.github.agentsoz.ees.agents.bushfire.Resident</attribute>
			<attribute name="InitialResponseThreshold" class="java.lang.Double" >0.0</attribute>
			<attribute name="FinalResponseThreshold"   class="java.lang.Double" >0.0</attribute>
			<attribute name="EvacLocationPreference" class="java.lang.String">Lockwood South,246364,5918800</attribute>
		</attributes>
		<plan selected="yes">
			<activity type="home" x="239064.87846755396" y="5901834.487746764" end_time="23:59:59" />
			<leg mode="car">
			</leg>
			<activity type="home" x="239064.87846755396" y="5901834.487746764" />
		</plan>

	</person>

<!-- ====================================================================== -->

</population>
