<?xml version="1.0" encoding="utf-8"?>
<!DOCTYPE population SYSTEM "http://www.matsim.org/files/dtd/population_v5.dtd">

<population>

<!-- ====================================================================== -->

	<person id="1" employed="no">
		<plan selected="yes">
			<act type="home" x="239244.49546681286" y="5901104.225831162" end_time="06:00:00" />
			<leg mode="car">
			</leg>
			<act type="home" x="239244.49546681286" y="5901104.225831162" />
		</plan>

	</person>

<!-- ====================================================================== -->

	<person id="10" employed="no">
		<plan selected="yes">
			<act type="home" x="239631.60220467718" y="5901816.6472459305" end_time="06:00:00" />
			<leg mode="car">
			</leg>
			<act type="home" x="239631.60220467718" y="5901816.6472459305" />
		</plan>

	</person>

<!-- ====================================================================== -->

	<person id="100" employed="no">
		<plan selected="yes">
			<act type="home" x="238912.6737186689" y="5901699.702416994" end_time="06:00:00" />
			<leg mode="car">
			</leg>
			<act type="home" x="238912.6737186689" y="5901699.702416994" />
		</plan>

	</person>

<!-- ====================================================================== -->

	<person id="101" employed="no">
		<plan selected="yes">
			<act type="home" x="239036.301847615" y="5902209.2967868615" end_time="06:00:00" />
			<leg mode="car">
			</leg>
			<act type="home" x="239036.301847615" y="5902209.2967868615" />
		</plan>

	</person>

<!-- ====================================================================== -->

	<person id="102" employed="no">
		<plan selected="yes">
			<act type="home" x="238686.3001624603" y="5901979.839826322" end_time="06:00:00" />
			<leg mode="car">
			</leg>
			<act type="home" x="238686.3001624603" y="5901979.839826322" />
		</plan>

	</person>

<!-- ====================================================================== -->

	<person id="103" employed="no">
		<plan selected="yes">
			<act type="home" x="239182.5688725827" y="5902701.548297018" end_time="06:00:00" />
			<leg mode="car">
			</leg>
			<act type="home" x="239182.5688725827" y="5902701.548297018" />
		</plan>

	</person>

<!-- ====================================================================== -->

	<person id="104" employed="no">
		<plan selected="yes">
			<act type="home" x="238472.45265886222" y="5901103.247817945" end_time="06:00:00" />
			<leg mode="car">
			</leg>
			<act type="home" x="238472.45265886222" y="5901103.247817945" />
		</plan>

	</person>

<!-- ====================================================================== -->

	<person id="105" employed="no">
		<plan selected="yes">
			<act type="home" x="238803.2423635285" y="5902172.956602252" end_time="06:00:00" />
			<leg mode="car">
			</leg>
			<act type="home" x="238803.2423635285" y="5902172.956602252" />
		</plan>

	</person>

<!-- ====================================================================== -->

	<person id="106" employed="no">
		<plan selected="yes">
			<act type="home" x="239634.10084514852" y="5902131.675409462" end_time="06:00:00" />
			<leg mode="car">
			</leg>
			<act type="home" x="239634.10084514852" y="5902131.675409462" />
		</plan>

	</person>

<!-- ====================================================================== -->

	<person id="107" employed="no">
		<plan selected="yes">
			<act type="home" x="239574.7854507133" y="5902786.365807339" end_time="06:00:00" />
			<leg mode="car">
			</leg>
			<act type="home" x="239574.7854507133" y="5902786.365807339" />
		</plan>

	</person>

<!-- ====================================================================== -->

	<person id="108" employed="no">
		<plan selected="yes">
			<act type="home" x="239355.2038603" y="5902211.698500042" end_time="06:00:00" />
			<leg mode="car">
			</leg>
			<act type="home" x="239355.2038603" y="5902211.698500042" />
		</plan>

	</person>

<!-- ====================================================================== -->

	<person id="109" employed="no">
		<plan selected="yes">
			<act type="home" x="239419.18169491232" y="5901645.058635405" end_time="06:00:00" />
			<leg mode="car">
			</leg>
			<act type="home" x="239419.18169491232" y="5901645.058635405" />
		</plan>

	</person>

<!-- ====================================================================== -->

	<person id="11" employed="no">
		<plan selected="yes">
			<act type="home" x="239613.73846015427" y="5901082.783275983" end_time="06:00:00" />
			<leg mode="car">
			</leg>
			<act type="home" x="239613.73846015427" y="5901082.783275983" />
		</plan>

	</person>

<!-- ====================================================================== -->

	<person id="110" employed="no">
		<plan selected="yes">
			<act type="home" x="239007.78442444565" y="5901146.344051764" end_time="06:00:00" />
			<leg mode="car">
			</leg>
			<act type="home" x="239007.78442444565" y="5901146.344051764" />
		</plan>

	</person>

<!-- ====================================================================== -->

	<person id="111" employed="no">
		<plan selected="yes">
			<act type="home" x="239445.05538053325" y="5901514.679227232" end_time="06:00:00" />
			<leg mode="car">
			</leg>
			<act type="home" x="239445.05538053325" y="5901514.679227232" />
		</plan>

	</person>

<!-- ====================================================================== -->

	<person id="112" employed="no">
		<plan selected="yes">
			<act type="home" x="238646.43951877873" y="5902140.331273447" end_time="06:00:00" />
			<leg mode="car">
			</leg>
			<act type="home" x="238646.43951877873" y="5902140.331273447" />
		</plan>

	</person>

<!-- ====================================================================== -->

	<person id="113" employed="no">
		<plan selected="yes">
			<act type="home" x="238539.23322102876" y="5901077.081373619" end_time="06:00:00" />
			<leg mode="car">
			</leg>
			<act type="home" x="238539.23322102876" y="5901077.081373619" />
		</plan>

	</person>

<!-- ====================================================================== -->

	<person id="114" employed="no">
		<plan selected="yes">
			<act type="home" x="238791.12920198208" y="5902435.295633883" end_time="06:00:00" />
			<leg mode="car">
			</leg>
			<act type="home" x="238791.12920198208" y="5902435.295633883" />
		</plan>

	</person>

<!-- ====================================================================== -->

	<person id="115" employed="no">
		<plan selected="yes">
			<act type="home" x="238982.3050405991" y="5901555.671945378" end_time="06:00:00" />
			<leg mode="car">
			</leg>
			<act type="home" x="238982.3050405991" y="5901555.671945378" />
		</plan>

	</person>

<!-- ====================================================================== -->

	<person id="116" employed="no">
		<plan selected="yes">
			<act type="home" x="238678.7543536893" y="5901494.197461258" end_time="06:00:00" />
			<leg mode="car">
			</leg>
			<act type="home" x="238678.7543536893" y="5901494.197461258" />
		</plan>

	</person>

<!-- ====================================================================== -->

	<person id="117" employed="no">
		<plan selected="yes">
			<act type="home" x="239224.1771859228" y="5902481.7807697905" end_time="06:00:00" />
			<leg mode="car">
			</leg>
			<act type="home" x="239224.1771859228" y="5902481.7807697905" />
		</plan>

	</person>

<!-- ====================================================================== -->

	<person id="118" employed="no">
		<plan selected="yes">
			<act type="home" x="238565.98388872642" y="5901497.133181282" end_time="06:00:00" />
			<leg mode="car">
			</leg>
			<act type="home" x="238565.98388872642" y="5901497.133181282" />
		</plan>

	</person>

<!-- ====================================================================== -->

	<person id="119" employed="no">
		<plan selected="yes">
			<act type="home" x="239428.86262346493" y="5902079.419762493" end_time="06:00:00" />
			<leg mode="car">
			</leg>
			<act type="home" x="239428.86262346493" y="5902079.419762493" />
		</plan>

	</person>

<!-- ====================================================================== -->

	<person id="12" employed="no">
		<plan selected="yes">
			<act type="home" x="239483.43647756972" y="5902386.225362127" end_time="06:00:00" />
			<leg mode="car">
			</leg>
			<act type="home" x="239483.43647756972" y="5902386.225362127" />
		</plan>

	</person>

<!-- ====================================================================== -->

	<person id="120" employed="no">
		<plan selected="yes">
			<act type="home" x="238345.91448325609" y="5901433.882419718" end_time="06:00:00" />
			<leg mode="car">
			</leg>
			<act type="home" x="238345.91448325609" y="5901433.882419718" />
		</plan>

	</person>

<!-- ====================================================================== -->

	<person id="121" employed="no">
		<plan selected="yes">
			<act type="home" x="239140.21411791528" y="5901198.098122199" end_time="06:00:00" />
			<leg mode="car">
			</leg>
			<act type="home" x="239140.21411791528" y="5901198.098122199" />
		</plan>

	</person>

<!-- ====================================================================== -->

	<person id="122" employed="no">
		<plan selected="yes">
			<act type="home" x="238421.14936335807" y="5901458.058950151" end_time="06:00:00" />
			<leg mode="car">
			</leg>
			<act type="home" x="238421.14936335807" y="5901458.058950151" />
		</plan>

	</person>

<!-- ====================================================================== -->

	<person id="123" employed="no">
		<plan selected="yes">
			<act type="home" x="238342.16918634032" y="5901842.891496386" end_time="06:00:00" />
			<leg mode="car">
			</leg>
			<act type="home" x="238342.16918634032" y="5901842.891496386" />
		</plan>

	</person>

<!-- ====================================================================== -->

	<person id="124" employed="no">
		<plan selected="yes">
			<act type="home" x="238712.51165318646" y="5902555.573735543" end_time="06:00:00" />
			<leg mode="car">
			</leg>
			<act type="home" x="238712.51165318646" y="5902555.573735543" />
		</plan>

	</person>

<!-- ====================================================================== -->

	<person id="125" employed="no">
		<plan selected="yes">
			<act type="home" x="239270.42021608585" y="5901571.436236202" end_time="06:00:00" />
			<leg mode="car">
			</leg>
			<act type="home" x="239270.42021608585" y="5901571.436236202" />
		</plan>

	</person>

<!-- ====================================================================== -->

	<person id="126" employed="no">
		<plan selected="yes">
			<act type="home" x="239215.17128469038" y="5902313.418746429" end_time="06:00:00" />
			<leg mode="car">
			</leg>
			<act type="home" x="239215.17128469038" y="5902313.418746429" />
		</plan>

	</person>

<!-- ====================================================================== -->

	<person id="127" employed="no">
		<plan selected="yes">
			<act type="home" x="239320.49704568126" y="5902028.47536488" end_time="06:00:00" />
			<leg mode="car">
			</leg>
			<act type="home" x="239320.49704568126" y="5902028.47536488" />
		</plan>

	</person>

<!-- ====================================================================== -->

	<person id="128" employed="no">
		<plan selected="yes">
			<act type="home" x="239281.60693437574" y="5901598.219535452" end_time="06:00:00" />
			<leg mode="car">
			</leg>
			<act type="home" x="239281.60693437574" y="5901598.219535452" />
		</plan>

	</person>

<!-- ====================================================================== -->

	<person id="129" employed="no">
		<plan selected="yes">
			<act type="home" x="239501.9013782692" y="5901973.782931748" end_time="06:00:00" />
			<leg mode="car">
			</leg>
			<act type="home" x="239501.9013782692" y="5901973.782931748" />
		</plan>

	</person>

<!-- ====================================================================== -->

	<person id="13" employed="no">
		<plan selected="yes">
			<act type="home" x="238768.00261160627" y="5902775.237143698" end_time="06:00:00" />
			<leg mode="car">
			</leg>
			<act type="home" x="238768.00261160627" y="5902775.237143698" />
		</plan>

	</person>

<!-- ====================================================================== -->

	<person id="130" employed="no">
		<plan selected="yes">
			<act type="home" x="238472.42781197093" y="5902099.004888356" end_time="06:00:00" />
			<leg mode="car">
			</leg>
			<act type="home" x="238472.42781197093" y="5902099.004888356" />
		</plan>

	</person>

<!-- ====================================================================== -->

	<person id="131" employed="no">
		<plan selected="yes">
			<act type="home" x="238389.2595404912" y="5902135.619725133" end_time="06:00:00" />
			<leg mode="car">
			</leg>
			<act type="home" x="238389.2595404912" y="5902135.619725133" />
		</plan>

	</person>

<!-- ====================================================================== -->

	<person id="132" employed="no">
		<plan selected="yes">
			<act type="home" x="239414.7358300948" y="5902273.04710967" end_time="06:00:00" />
			<leg mode="car">
			</leg>
			<act type="home" x="239414.7358300948" y="5902273.04710967" />
		</plan>

	</person>

<!-- ====================================================================== -->

	<person id="133" employed="no">
		<plan selected="yes">
			<act type="home" x="239414.03194388063" y="5901660.837385649" end_time="06:00:00" />
			<leg mode="car">
			</leg>
			<act type="home" x="239414.03194388063" y="5901660.837385649" />
		</plan>

	</person>

<!-- ====================================================================== -->

	<person id="134" employed="no">
		<plan selected="yes">
			<act type="home" x="238366.93857332753" y="5902467.254770482" end_time="06:00:00" />
			<leg mode="car">
			</leg>
			<act type="home" x="238366.93857332753" y="5902467.254770482" />
		</plan>

	</person>

<!-- ====================================================================== -->

	<person id="135" employed="no">
		<plan selected="yes">
			<act type="home" x="238694.2048721055" y="5902508.664390088" end_time="06:00:00" />
			<leg mode="car">
			</leg>
			<act type="home" x="238694.2048721055" y="5902508.664390088" />
		</plan>

	</person>

<!-- ====================================================================== -->

	<person id="136" employed="no">
		<plan selected="yes">
			<act type="home" x="239085.36682883065" y="5901323.473956979" end_time="06:00:00" />
			<leg mode="car">
			</leg>
			<act type="home" x="239085.36682883065" y="5901323.473956979" />
		</plan>

	</person>

<!-- ====================================================================== -->

	<person id="137" employed="no">
		<plan selected="yes">
			<act type="home" x="239428.89599192922" y="5902248.394181736" end_time="06:00:00" />
			<leg mode="car">
			</leg>
			<act type="home" x="239428.89599192922" y="5902248.394181736" />
		</plan>

	</person>

<!-- ====================================================================== -->

	<person id="138" employed="no">
		<plan selected="yes">
			<act type="home" x="239127.14544939203" y="5901238.081150812" end_time="06:00:00" />
			<leg mode="car">
			</leg>
			<act type="home" x="239127.14544939203" y="5901238.081150812" />
		</plan>

	</person>

<!-- ====================================================================== -->

	<person id="139" employed="no">
		<plan selected="yes">
			<act type="home" x="239304.90450147667" y="5902084.592388088" end_time="06:00:00" />
			<leg mode="car">
			</leg>
			<act type="home" x="239304.90450147667" y="5902084.592388088" />
		</plan>

	</person>

<!-- ====================================================================== -->

	<person id="14" employed="no">
		<plan selected="yes">
			<act type="home" x="239474.11628143428" y="5901260.537980872" end_time="06:00:00" />
			<leg mode="car">
			</leg>
			<act type="home" x="239474.11628143428" y="5901260.537980872" />
		</plan>

	</person>

<!-- ====================================================================== -->

	<person id="140" employed="no">
		<plan selected="yes">
			<act type="home" x="238492.50424323423" y="5901015.429965261" end_time="06:00:00" />
			<leg mode="car">
			</leg>
			<act type="home" x="238492.50424323423" y="5901015.429965261" />
		</plan>

	</person>

<!-- ====================================================================== -->

	<person id="141" employed="no">
		<plan selected="yes">
			<act type="home" x="238554.16965783943" y="5902532.960091477" end_time="06:00:00" />
			<leg mode="car">
			</leg>
			<act type="home" x="238554.16965783943" y="5902532.960091477" />
		</plan>

	</person>

<!-- ====================================================================== -->

	<person id="142" employed="no">
		<plan selected="yes">
			<act type="home" x="239305.31719157245" y="5901190.963847184" end_time="06:00:00" />
			<leg mode="car">
			</leg>
			<act type="home" x="239305.31719157245" y="5901190.963847184" />
		</plan>

	</person>

<!-- ====================================================================== -->

	<person id="143" employed="no">
		<plan selected="yes">
			<act type="home" x="239083.6288241129" y="5902113.6641991045" end_time="06:00:00" />
			<leg mode="car">
			</leg>
			<act type="home" x="239083.6288241129" y="5902113.6641991045" />
		</plan>

	</person>

<!-- ====================================================================== -->

	<person id="144" employed="no">
		<plan selected="yes">
			<act type="home" x="238555.7412181422" y="5902562.52257754" end_time="06:00:00" />
			<leg mode="car">
			</leg>
			<act type="home" x="238555.7412181422" y="5902562.52257754" />
		</plan>

	</person>

<!-- ====================================================================== -->

	<person id="145" employed="no">
		<plan selected="yes">
			<act type="home" x="238847.24292085657" y="5901890.580235625" end_time="06:00:00" />
			<leg mode="car">
			</leg>
			<act type="home" x="238847.24292085657" y="5901890.580235625" />
		</plan>

	</person>

<!-- ====================================================================== -->

	<person id="146" employed="no">
		<plan selected="yes">
			<act type="home" x="238339.97683763597" y="5901630.721253861" end_time="06:00:00" />
			<leg mode="car">
			</leg>
			<act type="home" x="238339.97683763597" y="5901630.721253861" />
		</plan>

	</person>

<!-- ====================================================================== -->

	<person id="147" employed="no">
		<plan selected="yes">
			<act type="home" x="239198.59465372635" y="5901606.5499495985" end_time="06:00:00" />
			<leg mode="car">
			</leg>
			<act type="home" x="239198.59465372635" y="5901606.5499495985" />
		</plan>

	</person>

<!-- ====================================================================== -->

	<person id="148" employed="no">
		<plan selected="yes">
			<act type="home" x="239680.2138398179" y="5902441.543660356" end_time="06:00:00" />
			<leg mode="car">
			</leg>
			<act type="home" x="239680.2138398179" y="5902441.543660356" />
		</plan>

	</person>

<!-- ====================================================================== -->

	<person id="149" employed="no">
		<plan selected="yes">
			<act type="home" x="239288.63213513672" y="5902488.504316456" end_time="06:00:00" />
			<leg mode="car">
			</leg>
			<act type="home" x="239288.63213513672" y="5902488.504316456" />
		</plan>

	</person>

<!-- ====================================================================== -->

	<person id="15" employed="no">
		<plan selected="yes">
			<act type="home" x="239192.8700515457" y="5902427.446599284" end_time="06:00:00" />
			<leg mode="car">
			</leg>
			<act type="home" x="239192.8700515457" y="5902427.446599284" />
		</plan>

	</person>

<!-- ====================================================================== -->

	<person id="150" employed="no">
		<plan selected="yes">
			<act type="home" x="239334.36265858397" y="5901050.220127997" end_time="06:00:00" />
			<leg mode="car">
			</leg>
			<act type="home" x="239334.36265858397" y="5901050.220127997" />
		</plan>

	</person>

<!-- ====================================================================== -->

	<person id="151" employed="no">
		<plan selected="yes">
			<act type="home" x="238908.1426380807" y="5901864.522110043" end_time="06:00:00" />
			<leg mode="car">
			</leg>
			<act type="home" x="238908.1426380807" y="5901864.522110043" />
		</plan>

	</person>

<!-- ====================================================================== -->

	<person id="152" employed="no">
		<plan selected="yes">
			<act type="home" x="238674.52195996157" y="5901761.673932069" end_time="06:00:00" />
			<leg mode="car">
			</leg>
			<act type="home" x="238674.52195996157" y="5901761.673932069" />
		</plan>

	</person>

<!-- ====================================================================== -->

	<person id="153" employed="no">
		<plan selected="yes">
			<act type="home" x="238459.188811575" y="5901959.379213757" end_time="06:00:00" />
			<leg mode="car">
			</leg>
			<act type="home" x="238459.188811575" y="5901959.379213757" />
		</plan>

	</person>

<!-- ====================================================================== -->

	<person id="154" employed="no">
		<plan selected="yes">
			<act type="home" x="239639.1079013752" y="5901006.731908306" end_time="06:00:00" />
			<leg mode="car">
			</leg>
			<act type="home" x="239639.1079013752" y="5901006.731908306" />
		</plan>

	</person>

<!-- ====================================================================== -->

	<person id="155" employed="no">
		<plan selected="yes">
			<act type="home" x="238842.9369120665" y="5901129.4659988275" end_time="06:00:00" />
			<leg mode="car">
			</leg>
			<act type="home" x="238842.9369120665" y="5901129.4659988275" />
		</plan>

	</person>

<!-- ====================================================================== -->

	<person id="156" employed="no">
		<plan selected="yes">
			<act type="home" x="239028.73463129293" y="5902530.932813143" end_time="06:00:00" />
			<leg mode="car">
			</leg>
			<act type="home" x="239028.73463129293" y="5902530.932813143" />
		</plan>

	</person>

<!-- ====================================================================== -->

	<person id="157" employed="no">
		<plan selected="yes">
			<act type="home" x="239400.356208474" y="5901677.348102207" end_time="06:00:00" />
			<leg mode="car">
			</leg>
			<act type="home" x="239400.356208474" y="5901677.348102207" />
		</plan>

	</person>

<!-- ====================================================================== -->

	<person id="158" employed="no">
		<plan selected="yes">
			<act type="home" x="239235.75159621154" y="5902743.701737279" end_time="06:00:00" />
			<leg mode="car">
			</leg>
			<act type="home" x="239235.75159621154" y="5902743.701737279" />
		</plan>

	</person>

<!-- ====================================================================== -->

	<person id="159" employed="no">
		<plan selected="yes">
			<act type="home" x="238572.5311584905" y="5901427.129545859" end_time="06:00:00" />
			<leg mode="car">
			</leg>
			<act type="home" x="238572.5311584905" y="5901427.129545859" />
		</plan>

	</person>

<!-- ====================================================================== -->

	<person id="16" employed="no">
		<plan selected="yes">
			<act type="home" x="239537.84662073295" y="5902738.813908664" end_time="06:00:00" />
			<leg mode="car">
			</leg>
			<act type="home" x="239537.84662073295" y="5902738.813908664" />
		</plan>

	</person>

<!-- ====================================================================== -->

	<person id="160" employed="no">
		<plan selected="yes">
			<act type="home" x="239510.9586874604" y="5901926.600595621" end_time="06:00:00" />
			<leg mode="car">
			</leg>
			<act type="home" x="239510.9586874604" y="5901926.600595621" />
		</plan>

	</person>

<!-- ====================================================================== -->

	<person id="161" employed="no">
		<plan selected="yes">
			<act type="home" x="239701.89807792715" y="5902474.939192682" end_time="06:00:00" />
			<leg mode="car">
			</leg>
			<act type="home" x="239701.89807792715" y="5902474.939192682" />
		</plan>

	</person>

<!-- ====================================================================== -->

	<person id="162" employed="no">
		<plan selected="yes">
			<act type="home" x="239541.58463545414" y="5902711.9554571165" end_time="06:00:00" />
			<leg mode="car">
			</leg>
			<act type="home" x="239541.58463545414" y="5902711.9554571165" />
		</plan>

	</person>

<!-- ====================================================================== -->

	<person id="163" employed="no">
		<plan selected="yes">
			<act type="home" x="239119.6601586079" y="5902036.7677032435" end_time="06:00:00" />
			<leg mode="car">
			</leg>
			<act type="home" x="239119.6601586079" y="5902036.7677032435" />
		</plan>

	</person>

<!-- ====================================================================== -->

	<person id="164" employed="no">
		<plan selected="yes">
			<act type="home" x="238384.73531528845" y="5902751.626196834" end_time="06:00:00" />
			<leg mode="car">
			</leg>
			<act type="home" x="238384.73531528845" y="5902751.626196834" />
		</plan>

	</person>

<!-- ====================================================================== -->

	<person id="165" employed="no">
		<plan selected="yes">
			<act type="home" x="239397.41893681895" y="5902563.035818618" end_time="06:00:00" />
			<leg mode="car">
			</leg>
			<act type="home" x="239397.41893681895" y="5902563.035818618" />
		</plan>

	</person>

<!-- ====================================================================== -->

	<person id="166" employed="no">
		<plan selected="yes">
			<act type="home" x="239111.80314822673" y="5902106.4007145045" end_time="06:00:00" />
			<leg mode="car">
			</leg>
			<act type="home" x="239111.80314822673" y="5902106.4007145045" />
		</plan>

	</person>

<!-- ====================================================================== -->

	<person id="167" employed="no">
		<plan selected="yes">
			<act type="home" x="239346.84146347232" y="5902603.974867548" end_time="06:00:00" />
			<leg mode="car">
			</leg>
			<act type="home" x="239346.84146347232" y="5902603.974867548" />
		</plan>

	</person>

<!-- ====================================================================== -->

	<person id="168" employed="no">
		<plan selected="yes">
			<act type="home" x="238875.39668242907" y="5901185.052520596" end_time="06:00:00" />
			<leg mode="car">
			</leg>
			<act type="home" x="238875.39668242907" y="5901185.052520596" />
		</plan>

	</person>

<!-- ====================================================================== -->

	<person id="169" employed="no">
		<plan selected="yes">
			<act type="home" x="239020.90028542042" y="5902510.817374757" end_time="06:00:00" />
			<leg mode="car">
			</leg>
			<act type="home" x="239020.90028542042" y="5902510.817374757" />
		</plan>

	</person>

<!-- ====================================================================== -->

	<person id="17" employed="no">
		<plan selected="yes">
			<act type="home" x="239613.8691340444" y="5901748.487328584" end_time="06:00:00" />
			<leg mode="car">
			</leg>
			<act type="home" x="239613.8691340444" y="5901748.487328584" />
		</plan>

	</person>

<!-- ====================================================================== -->

	<person id="170" employed="no">
		<plan selected="yes">
			<act type="home" x="239486.03429084906" y="5901667.498707341" end_time="06:00:00" />
			<leg mode="car">
			</leg>
			<act type="home" x="239486.03429084906" y="5901667.498707341" />
		</plan>

	</person>

<!-- ====================================================================== -->

	<person id="171" employed="no">
		<plan selected="yes">
			<act type="home" x="239016.88553919777" y="5902593.691160565" end_time="06:00:00" />
			<leg mode="car">
			</leg>
			<act type="home" x="239016.88553919777" y="5902593.691160565" />
		</plan>

	</person>

<!-- ====================================================================== -->

	<person id="172" employed="no">
		<plan selected="yes">
			<act type="home" x="239731.64693556356" y="5901139.735807513" end_time="06:00:00" />
			<leg mode="car">
			</leg>
			<act type="home" x="239731.64693556356" y="5901139.735807513" />
		</plan>

	</person>

<!-- ====================================================================== -->

	<person id="173" employed="no">
		<plan selected="yes">
			<act type="home" x="239734.91761381962" y="5902803.443478956" end_time="06:00:00" />
			<leg mode="car">
			</leg>
			<act type="home" x="239734.91761381962" y="5902803.443478956" />
		</plan>

	</person>

<!-- ====================================================================== -->

	<person id="174" employed="no">
		<plan selected="yes">
			<act type="home" x="238432.59240022162" y="5901580.420212095" end_time="06:00:00" />
			<leg mode="car">
			</leg>
			<act type="home" x="238432.59240022162" y="5901580.420212095" />
		</plan>

	</person>

<!-- ====================================================================== -->

	<person id="175" employed="no">
		<plan selected="yes">
			<act type="home" x="239590.1395202792" y="5902176.115946333" end_time="06:00:00" />
			<leg mode="car">
			</leg>
			<act type="home" x="239590.1395202792" y="5902176.115946333" />
		</plan>

	</person>

<!-- ====================================================================== -->

	<person id="176" employed="no">
		<plan selected="yes">
			<act type="home" x="238562.5531590148" y="5902184.816462694" end_time="06:00:00" />
			<leg mode="car">
			</leg>
			<act type="home" x="238562.5531590148" y="5902184.816462694" />
		</plan>

	</person>

<!-- ====================================================================== -->
