<?xml version="1.0" encoding="utf-8"?>
<!DOCTYPE population SYSTEM "http://www.matsim.org/files/dtd/population_v6.dtd">
  <population>
  <!-- ====================================================================== -->
  <!-- Regular MATSim agent can be convered to BDI agents
       using the "BDIAgentType" tag that specifies the agent's type
       i.e., the Jill agent's Java class.
  -->
  <!-- InitialResponseThreshold and FinalResponseThreshold are
       threshold values (between 0.0 - 1.0) that control the
       agent's two-stage response to an unfolding situation, with lower
       values indicating a propensity to respond sooner to information
       (i.e., evacuation messages, visibility of smoke/fire, and such).z
       Always InitialResponseThreshold =< FinalResponseThreshold.
  -->
  <!-- IMPORTANT: KEEP ALL AGENTS OF THE SAME TYPE TOGETHER (CONSEQUTIVE)
       otherwise the mapping in jill will be all messed up. At some point
       Jill will allow more nuanced initialisation, but for now you can
       only initialise types in "blocks" of agents. DS, Aug 10, 2018
  -->
  <!-- ====================================================================== -->

  <!--cccc=DHI_to_CHECK-->

  <!--
  Lives in Anglesea, ignores all warnings and continues with daily plan. Drives through burnt/burning zone on way home
  from work, so seems determined to not change their life around the fire.

  DS: Confirmed that agent drives through fire front on the way back.
  This seems to be because no threshold is breached and therefore the agent
  is just going about its day undeterred.
 TODO Check that penalties are applying properly to plan formed at 20:47. see issue #36
 TODO Add failsafe fire front disruption in case where fire hits post plan. see issue #63
 JR: verified
 -->

  <person id= "0" >
    <attributes>
      <attribute name="BDIAgentType" class="java.lang.String" >io.github.agentsoz.ees.agents.bushfire.Resident</attribute>
      <attribute name="HasDependentsAtLocation" class="java.lang.String" ></attribute>
      <attribute name="InitialResponseThreshold" class="java.lang.Double" >0.8</attribute>
      <attribute name="FinalResponseThreshold"   class="java.lang.Double" >0.8</attribute>
      <attribute name="WillGoHomeAfterVisitingDependents" class="java.lang.Boolean" >false</attribute>
      <attribute name="WillGoHomeBeforeLeaving" class="java.lang.Boolean" >false</attribute>
      <attribute name="EvacLocationPreference" class="java.lang.String">Torquay Foreshore,790771,5752462</attribute>
      <attribute name="InvacLocationPreference" class="java.lang.String">Anglesea Shops,777471,5742412</attribute>
      <attribute name="sharesInfoWithSocialNetwork" class="java.lang.Boolean">true</attribute>
    </attributes>
    <plan selected="yes">
      <activity type="home" x="777487.95417" y="5742688.0183" end_time="09:58:00" />
      <leg mode="car" />
      <activity type="work" x="778210.63486" y="5744138.97464" end_time="20:47:00" />
      <leg mode="car" />
      <activity type="home" x="777487.95417" y="5742688.0183" />
    </plan>
  </person>

  <!--
  Lives in Geelong and does not receive any warnings, so no response is triggered. However, has a dependent
  in Anglesea who is under threat. A good example of why the social network model will be beneficial (see issue #49).
  JR: verified.
  -->
  <person id= "1" >
    <attributes>
      <attribute name="BDIAgentType" class="java.lang.String" >io.github.agentsoz.ees.agents.bushfire.Resident</attribute>
      <attribute name="HasDependentsAtLocation" class="java.lang.String" >776562.41,5743690.74</attribute>
      <attribute name="InitialResponseThreshold" class="java.lang.Double" >0.2</attribute>
      <attribute name="FinalResponseThreshold"   class="java.lang.Double" >0.5</attribute>
      <attribute name="WillGoHomeAfterVisitingDependents" class="java.lang.Boolean" >true</attribute>
      <attribute name="WillGoHomeBeforeLeaving" class="java.lang.Boolean" >false</attribute>
      <attribute name="EvacLocationPreference" class="java.lang.String">Torquay Foreshore,790771,5752462</attribute>
      <attribute name="InvacLocationPreference" class="java.lang.String">Anglesea Shops,777471,5742412</attribute>
      <attribute name="sharesInfoWithSocialNetwork" class="java.lang.Boolean">true</attribute>
    </attributes>
    <plan selected="yes">
      <activity type="home" x="793533.93691" y="5770266.87819" end_time="09:46:00" />
      <leg mode="car" />
      <activity type="other" x="793534.67335" y="5769831.90665" end_time="12:55:00" />
      <leg mode="car" />
      <activity type="home" x="793533.93691" y="5770266.87819" end_time="15:16:00" />
      <leg mode="car" />
      <activity type="beach" x="794920.60169" y="5772690.71159" end_time="16:02:00" />
      <leg mode="car" />
      <activity type="home" x="793533.93691" y="5770266.87819" />
    </plan>
  </person>

  <!--
  (R1) Resident lives, works and shops in Torquay. Whilst at shops after work, they see smoke and decide to go home and
  prepare. Does not receive any further warnings, so remains there.
  JR: verified
  -->
  <person id= "2" >
    <attributes>
      <attribute name="BDIAgentType" class="java.lang.String" >io.github.agentsoz.ees.agents.bushfire.Resident</attribute>
      <attribute name="HasDependentsAtLocation" class="java.lang.String" ></attribute>
      <attribute name="InitialResponseThreshold" class="java.lang.Double" >0.2</attribute>
      <attribute name="FinalResponseThreshold"   class="java.lang.Double" >0.5</attribute>
      <attribute name="WillGoHomeAfterVisitingDependents" class="java.lang.Boolean" >false</attribute>
      <attribute name="WillGoHomeBeforeLeaving" class="java.lang.Boolean" >true</attribute>
      <attribute name="EvacLocationPreference" class="java.lang.String">Torquay Foreshore,790771,5752462</attribute>
      <attribute name="InvacLocationPreference" class="java.lang.String">Anglesea Shops,777471,5742412</attribute>
      <attribute name="sharesInfoWithSocialNetwork" class="java.lang.Boolean">true</attribute>
    </attributes>
    <plan selected="yes">
      <activity type="home" x="788726.02049816" y="5750836.993334165" end_time="11:57:00" />
      <leg mode="car" />
      <activity type="shops" x="790441.540985005" y="5752068.77830236" end_time="13:30:00" />
      <leg mode="car" />
      <activity type="work" x="789633.874596219" y="5752644.05998922" end_time="17:50:00" />
      <leg mode="car" />
      <activity type="shops" x="790251.07186009" y="5752186.88566304" end_time="20:03:00" />
      <leg mode="car" />
      <activity type="home" x="788726.02049816" y="5750836.993334165" />
    </plan>
  </person>


  <!--
  (R3) Anglesea resident has dependent (child) at a school. Breaks initial threshold at work, goes home, and then goes
  to school, waits there until receiving EVACUATE_NOW message, and evacuates to advised location.
  JR: verified

  -->
  <person id= "3" >
    <attributes>
      <attribute name="BDIAgentType" class="java.lang.String" >io.github.agentsoz.ees.agents.bushfire.Resident</attribute>
      <attribute name="HasDependentsAtLocation" class="java.lang.String" >778707.91,5745384.49</attribute>
      <attribute name="InitialResponseThreshold" class="java.lang.Double" >0.2</attribute>
      <attribute name="FinalResponseThreshold"   class="java.lang.Double" >0.3</attribute>
      <attribute name="WillGoHomeAfterVisitingDependents" class="java.lang.Boolean" >false</attribute>
      <attribute name="WillGoHomeBeforeLeaving" class="java.lang.Boolean" >false</attribute>
      <attribute name="EvacLocationPreference" class="java.lang.String">Torquay Foreshore,790771,5752462</attribute>
      <attribute name="InvacLocationPreference" class="java.lang.String">Anglesea Shops,777471,5742412</attribute>
      <attribute name="sharesInfoWithSocialNetwork" class="java.lang.Boolean">true</attribute>
    </attributes>
    <plan selected="yes">
      <activity type="home" x="778989.314775467" y="5744242.6394108" end_time="08:23:00" />
      <leg mode="car" />
      <activity type="work" x="778907.540540978" y="5744529.97594215" end_time="17:24:00" />
      <leg mode="car" />
      <activity type="home" x="778989.314775467" y="5744242.6394108" end_time="20:57:00" />
      <leg mode="car" />
      <activity type="work" x="779043.721912658" y="5744521.18104089" end_time="23:59:00" />
      <leg mode="car" />
      <activity type="home" x="778989.314775467" y="5744242.6394108" />
    </plan>
  </person>

  <!--
  (R4) Anglesea resident is at work when both responses are triggered, and goes to dependent at school (same work and
  school as above). Then takes kids home en route to evacuating to preferred location (Torquay).
  JR: verified

  -->
  <person id= "4" >
    <attributes>
      <attribute name="BDIAgentType" class="java.lang.String" >io.github.agentsoz.ees.agents.bushfire.Resident</attribute>
      <attribute name="HasDependentsAtLocation" class="java.lang.String" >778707.91,5745384.49</attribute>
      <attribute name="InitialResponseThreshold" class="java.lang.Double" >0.2</attribute>
      <attribute name="FinalResponseThreshold"   class="java.lang.Double" >0.3</attribute>
      <attribute name="WillGoHomeAfterVisitingDependents" class="java.lang.Boolean" >true</attribute>
      <attribute name="WillGoHomeBeforeLeaving" class="java.lang.Boolean" >false</attribute>
      <attribute name="EvacLocationPreference" class="java.lang.String">Torquay Foreshore,790771,5752462</attribute>
      <attribute name="InvacLocationPreference" class="java.lang.String">Anglesea Shops,777471,5742412</attribute>
      <attribute name="sharesInfoWithSocialNetwork" class="java.lang.Boolean">true</attribute>
    </attributes>
    <plan selected="yes">
      <activity type="home" x="776910.4144516076" y="5742220.4645896815" end_time="08:46:00" />
      <leg mode="car" />
      <activity type="work" x="778907.540540978" y="5744529.97594215" end_time="17:41:00" />
      <leg mode="car" />
      <activity type="home" x="776910.4144516076" y="5742220.4645896815" />
    </plan>
  </person>


  <!--
  (R2) Anglesea resident is at work when INITIAL_RESPONSE is triggered. Goes home, goes to dependents, getting stuck in
   congestion and replanning on the way. They then take them back home and stay there.
   Upon seeing fire that evening, the agent evacuates family to advised location, taking the long route to avoid the
   fire.
  JR: verified
  -->
  <person id= "5" >
    <attributes>
      <attribute name="BDIAgentType" class="java.lang.String" >io.github.agentsoz.ees.agents.bushfire.Resident</attribute>
      <attribute name="HasDependentsAtLocation" class="java.lang.String" >778707.91,5745384.49</attribute>
      <attribute name="InitialResponseThreshold" class="java.lang.Double" >0.2</attribute>
      <attribute name="FinalResponseThreshold"   class="java.lang.Double" >0.7</attribute>
      <attribute name="WillGoHomeAfterVisitingDependents" class="java.lang.Boolean" >true</attribute>
      <attribute name="WillGoHomeBeforeLeaving" class="java.lang.Boolean" >false</attribute>
      <attribute name="EvacLocationPreference" class="java.lang.String">Torquay Foreshore,790771,5752462</attribute>
      <attribute name="InvacLocationPreference" class="java.lang.String">Anglesea Shops,777471,5742412</attribute>
      <attribute name="sharesInfoWithSocialNetwork" class="java.lang.Boolean">true</attribute>
    </attributes>
    <plan selected="yes">
      <activity type="home" x="777222.2149925517" y="5744702.686600856" end_time="08:33:00" />
      <leg mode="car" />
      <activity type="work" x="777405.3574812234" y="5743656.7993866345" end_time="17:54:00" />
      <leg mode="car" />
      <activity type="home" x="777222.2149925517" y="5744702.686600856" />
    </plan>
  </person>


  <!--
  (R5) Anglesea resident has dependents and is at the shops when both responses are triggered.
  Does not go home before or after picking them up from school, evacuating directly from there to advised location.
 JR: verified
  -->
  <person id= "6" >
    <attributes>
      <attribute name="BDIAgentType" class="java.lang.String" >io.github.agentsoz.ees.agents.bushfire.Resident</attribute>
      <attribute name="HasDependentsAtLocation" class="java.lang.String" >778707.91,5745384.49</attribute>
      <attribute name="InitialResponseThreshold" class="java.lang.Double" >0.2</attribute>
      <attribute name="FinalResponseThreshold"   class="java.lang.Double" >0.3</attribute>
      <attribute name="WillGoHomeAfterVisitingDependents" class="java.lang.Boolean" >false</attribute>
      <attribute name="WillGoHomeBeforeLeaving" class="java.lang.Boolean" >true</attribute>
      <attribute name="EvacLocationPreference" class="java.lang.String">Torquay Foreshore,790771,5752462</attribute>
      <attribute name="InvacLocationPreference" class="java.lang.String">Anglesea Shops,777471,5742412</attribute>
      <attribute name="sharesInfoWithSocialNetwork" class="java.lang.Boolean">true</attribute>
    </attributes>
    <plan selected="yes">
      <activity type="home" x="771761.716285717" y="5753230.123211579" end_time="11:37:00" />
      <leg mode="car" />
      <activity type="shops" x=" 778676.6" y="5744446" end_time="14:51:00" />
      <leg mode="car" />
      <activity type="home" x="771761.716285717" y="5753230.123211579" />
    </plan>
  </person>

  <!--(R6/R7) Lives north of the fire and works just south of Anglesea. Has no dependents, and goes to FINAL_RESPONSE
  at the same time as INITIAL RESPONSE. Chooses to evacuate straight away rather than going all the way home first.
  JR: verified-->

  <person id= "7" >
    <attributes>
      <attribute name="BDIAgentType" class="java.lang.String" >io.github.agentsoz.ees.agents.bushfire.Resident</attribute>
      <attribute name="HasDependentsAtLocation" class="java.lang.String" ></attribute>
      <attribute name="InitialResponseThreshold" class="java.lang.Double" >0.3</attribute>
      <attribute name="FinalResponseThreshold"   class="java.lang.Double" >0.4</attribute>
      <attribute name="WillGoHomeAfterVisitingDependents" class="java.lang.Boolean" >false</attribute>
      <attribute name="WillGoHomeBeforeLeaving" class="java.lang.Boolean" >false</attribute>
      <attribute name="EvacLocationPreference" class="java.lang.String">Torquay Foreshore,790771,5752462</attribute>
      <attribute name="InvacLocationPreference" class="java.lang.String">Anglesea Shops,777471,5742412</attribute>
      <attribute name="sharesInfoWithSocialNetwork" class="java.lang.Boolean">true</attribute>
    </attributes>
    <plan selected="yes">
      <activity type="home" x="768838.77263" y="5780582.04375" end_time="06:20:00" />
      <leg mode="car" />
      <activity type="work" x="772310.02792" y="5740461.39643" end_time="15:48:00" />
      <leg mode="car" />
      <activity type="other" x="759074.12513" y="5730215.34091" end_time="16:17:00" />
      <leg mode="car" />
      <activity type="home" x="768838.77263" y="5780582.04375" end_time="18:01:00" />
      <leg mode="car" />
      <activity type="home" x="768838.77263" y="5780582.04375" />
    </plan>
  </person>

<!--After a day of shops and beach within the local Anglesea area, the sight of smoke causes this part time resident
 to head home despite the congestion. A few hours later, the sight of fire means that they evacuate south.
JR: verified
 -->
  <person id= "8" >
    <attributes>
      <attribute name="BDIAgentType" class="java.lang.String" >io.github.agentsoz.ees.agents.bushfire.ResidentPartTime</attribute>
      <attribute name="HasDependentsAtLocation" class="java.lang.String" ></attribute>
      <attribute name="InitialResponseThreshold" class="java.lang.Double" >0.4</attribute>
      <attribute name="FinalResponseThreshold"   class="java.lang.Double" >0.7</attribute>
      <attribute name="WillGoHomeAfterVisitingDependents" class="java.lang.Boolean" >false</attribute>
      <attribute name="WillGoHomeBeforeLeaving" class="java.lang.Boolean" >true</attribute>
      <attribute name="EvacLocationPreference" class="java.lang.String">Lorne 30,758783.204945714,5730096.01981458</attribute>
      <attribute name="InvacLocationPreference" class="java.lang.String">Anglesea Shops,777471,5742412</attribute>
      <attribute name="sharesInfoWithSocialNetwork" class="java.lang.Boolean">true</attribute>
    </attributes>
    <plan selected="yes">
      <activity type="home" x="777234.180895096" y="5743832.89478358" end_time="07:13:00" />
      <leg mode="car" />
      <activity type="shops" x="778175.520327603" y="5744153.76169213" end_time="09:08:00" />
      <leg mode="car" />
      <activity type="beach" x="778247.725118489" y="5743352.11543371" end_time="11:29:00" />
      <leg mode="car" />
      <activity type="home" x="777234.180895096" y="5743832.89478358" end_time="13:17:00" />
      <leg mode="car" />
      <activity type="beach" x="778614.794764519" y="5743470.87325903" end_time="14:10:00" />
      <leg mode="car" />
      <activity type="shops" x="778175.520327603" y="5744153.76169213" end_time="17:28:00" />
      <leg mode="car" />
      <activity type="other" x="789861.480645674" y="5753138.57302227" end_time="18:04:00" />
      <leg mode="car" />
      <activity type="home" x="777234.180895096" y="5743832.89478358" />
    </plan>
  </person>

  <!--
  Day visitor comes in to Anglesea from the west (Colac) does not respond to any fire threats despite being in danger
  zone (as expected- they are determined to enjoy their holiday).
  JR:verified
  -->
  <person id= "9" >
    <attributes>
      <attribute name="BDIAgentType" class="java.lang.String" >io.github.agentsoz.ees.agents.bushfire.VisitorDaytime</attribute>
      <attribute name="HasDependentsAtLocation" class="java.lang.String" ></attribute>
      <attribute name="InitialResponseThreshold" class="java.lang.Double" >0.7</attribute>
      <attribute name="FinalResponseThreshold"   class="java.lang.Double" >0.7</attribute>
      <attribute name="WillGoHomeAfterVisitingDependents" class="java.lang.Boolean" >false</attribute>
      <attribute name="WillGoHomeBeforeLeaving" class="java.lang.Boolean" >false</attribute>
      <attribute name="EvacLocationPreference" class="java.lang.String">Torquay Foreshore,790771,5752462</attribute>
      <attribute name="InvacLocationPreference" class="java.lang.String">Anglesea Shops,777471,5742412</attribute>
      <attribute name="sharesInfoWithSocialNetwork" class="java.lang.Boolean">true</attribute>
    </attributes>
    <plan selected="yes">
      <activity type="home" x="725868.5478" y="5753291.5198" end_time="05:29:00" />
      <leg mode="car" />
      <activity type="other" x="778507.88547" y="5744455.63954" end_time="10:36:00" />
      <leg mode="car" />
      <activity type="shops" x="778190.084385339" y="5744106.22590521" end_time="13:38:00" />
      <leg mode="car" />
      <activity type="other" x="767533.87321" y="5747333.10942" end_time="15:09:00" />
      <leg mode="car" />
      <activity type="beach" x="778237.06886" y="5743964.79164" end_time="16:22:00" />
      <leg mode="car" />
      <activity type="shops" x="732598.98147" y="5756278.36455" end_time="21:37:00" />
      <leg mode="car" />
      <activity type="home" x="725868.5478" y="5753291.5198" />
    </plan>
  </person>

  <!--
     This day visitor comes in from the east (Melbourne), and similarly spends the day in Anglesea. However, around 1pm,
     they receive the evacuate now message, which sees both thresholds triggered and them leave to the advised
     evacuation point.
     JR: verified
  -->
  <person id= "10" >
    <attributes>
      <attribute name="BDIAgentType" class="java.lang.String" >io.github.agentsoz.ees.agents.bushfire.VisitorDaytime</attribute>
      <attribute name="HasDependentsAtLocation" class="java.lang.String" ></attribute>
      <attribute name="InitialResponseThreshold" class="java.lang.Double" >0.3</attribute>
      <attribute name="FinalResponseThreshold"   class="java.lang.Double" >0.3</attribute>
      <attribute name="WillGoHomeAfterVisitingDependents" class="java.lang.Boolean" >false</attribute>
      <attribute name="WillGoHomeBeforeLeaving" class="java.lang.Boolean" >false</attribute>
      <attribute name="EvacLocationPreference" class="java.lang.String">Melbourne,841924.6,5808324.9</attribute>
      <attribute name="InvacLocationPreference" class="java.lang.String">Anglesea Shops,777471,5742412</attribute>
      <attribute name="sharesInfoWithSocialNetwork" class="java.lang.Boolean">true</attribute>
    </attributes>
    <plan selected="yes">
      <activity type="home" x="841924.6" y="5808324.9" end_time="07:38:00" />
      <leg mode="car" />
      <activity type="other" x="778948.04363" y="5744611.19874" end_time="10:37:00" />
      <leg mode="car" />
      <activity type="shops" x="778625.507483276" y="5744460.79582655" end_time="12:02:00" />
      <leg mode="car" />
      <activity type="beach" x="778247.725118489" y="5743352.11543371" end_time="17:58:00" />
      <leg mode="car" />
      <activity type="other" x="778836.49665" y="5745094.30493" end_time="18:34:00" />
      <leg mode="car" />
      <activity type="home" x="841924.6" y="5808324.9" />
    </plan>
  </person>

  <!--This visitor is staying in Airey's inlet, but visits places all along the Great Ocean Road during the day. Does
    not act upon any warnings, and for the most part avoids the danger area.
  JR: verified
    -->


  <person id= "11" >
    <attributes>
      <attribute name="BDIAgentType" class="java.lang.String" >io.github.agentsoz.ees.agents.bushfire.VisitorOvernight</attribute>
      <attribute name="HasDependentsAtLocation" class="java.lang.String" ></attribute>
      <attribute name="InitialResponseThreshold" class="java.lang.Double" >0.5</attribute>
      <attribute name="FinalResponseThreshold"   class="java.lang.Double" >0.5</attribute>
      <attribute name="WillGoHomeAfterVisitingDependents" class="java.lang.Boolean" >false</attribute>
      <attribute name="WillGoHomeBeforeLeaving" class="java.lang.Boolean" >true</attribute>
      <attribute name="EvacLocationPreference" class="java.lang.String">Torquay Foreshore,790771,5752462</attribute>
      <attribute name="InvacLocationPreference" class="java.lang.String">Anglesea Shops,777471,5742412</attribute>
      <attribute name="sharesInfoWithSocialNetwork" class="java.lang.Boolean">true</attribute>
    </attributes>
    <plan selected="yes">
      <activity type="home" x="771120.82582" y="5738818.00056" end_time="04:38:00" />
      <leg mode="car" />
      <activity type="beach" x="786985.47082" y="5748372.83646" end_time="06:45:00" />
      <leg mode="car" />
      <activity type="other" x="778358.96582" y="5743692.86289" end_time="10:35:00" />
      <leg mode="car" />
      <activity type="beach" x="783893.9946" y="5745788.90364" end_time="14:12:00" />
      <leg mode="car" />
      <activity type="shops" x="770351.40111" y="5738001.92605" end_time="16:50:00" />
      <leg mode="car" />
      <activity type="shops" x="759317.42351" y="5729964.86105" end_time="20:34:00" />
      <leg mode="car" />
      <activity type="home" x="771120.82582" y="5738818.00056" />
    </plan>
  </person>

  <!--This visitor is staying in Lorne well south of the fire. Visits the national park north of Anglesea and whilst
  there sees smoke. After going back to accommodation, they leave to go beck to Melbourne.
  This is a panicked move and actually takes them into congestion and potential danger, although it is still early.

   JR: verified. Disruption added, still need to test it. Will also affect 11 and maybe 9-->
  <person id= "12" >
    <attributes>
      <attribute name="BDIAgentType" class="java.lang.String" >io.github.agentsoz.ees.agents.bushfire.VisitorOvernight</attribute>
      <attribute name="HasDependentsAtLocation" class="java.lang.String" ></attribute>
      <attribute name="InitialResponseThreshold" class="java.lang.Double" >0.2</attribute>
      <attribute name="FinalResponseThreshold"   class="java.lang.Double" >0.2</attribute>
      <attribute name="WillGoHomeAfterVisitingDependents" class="java.lang.Boolean" >false</attribute>
      <attribute name="WillGoHomeBeforeLeaving" class="java.lang.Boolean" >true</attribute>
      <attribute name="EvacLocationPreference" class="java.lang.String">Melbourne,841924.6,5808324.9</attribute>
      <attribute name="InvacLocationPreference" class="java.lang.String">Anglesea Shops,777471,5742412</attribute>
      <attribute name="sharesInfoWithSocialNetwork" class="java.lang.Boolean">true</attribute>
    </attributes>
    <plan selected="yes">
      <activity type="home" x="756924.90574" y="5726253.79922" end_time="07:11:00" />
      <leg mode="car" />
      <activity type="other" x="767533.87321" y="5747333.10942" end_time="13:37:00" />
      <leg mode="car" />
      <activity type="shops" x="759317.42351" y="5729964.86105" end_time="14:39:00" />
      <leg mode="car" />
      <activity type="beach" x="753128.71399" y="5720791.13233" end_time="15:16:00" />
      <leg mode="car" />
      <activity type="home" x="756924.90574" y="5726253.79922" end_time="17:42:00" />
      <leg mode="car" />
      <activity type="shops" x="759294.96025" y="5730628.35413" end_time="20:05:00" />
      <leg mode="car" />
      <activity type="home" x="756924.90574" y="5726253.79922" />
    </plan>
  </person>


  <!-- Regular visitor evacuates from Anglesea home immediately upon hearing about the fire.
  JR:verified-->
  <person id= "13" >
    <attributes>
      <attribute name="BDIAgentType" class="java.lang.String" >io.github.agentsoz.ees.agents.bushfire.VisitorRegular</attribute>
      <attribute name="HasDependentsAtLocation" class="java.lang.String" ></attribute>
      <attribute name="InitialResponseThreshold" class="java.lang.Double" >0.0</attribute>
      <attribute name="FinalResponseThreshold"   class="java.lang.Double" >0.0</attribute>
      <attribute name="WillGoHomeAfterVisitingDependents" class="java.lang.Boolean" >false</attribute>
      <attribute name="WillGoHomeBeforeLeaving" class="java.lang.Boolean" >false</attribute>
      <attribute name="EvacLocationPreference" class="java.lang.String">Torquay Foreshore,790771,5752462</attribute>
      <attribute name="InvacLocationPreference" class="java.lang.String">Anglesea Shops,777471,5742412</attribute>
      <attribute name="sharesInfoWithSocialNetwork" class="java.lang.Boolean">true</attribute>
    </attributes>
    <plan selected="yes">
      <activity type="home" x="777528.01183" y="5744592.20828" end_time="13:11:00" />
      <leg mode="car" />
      <activity type="beach" x="778406.90316" y="5743587.79637" end_time="17:41:00" />
      <leg mode="car" />
      <activity type="home" x="777528.01183" y="5744592.20828" end_time="18:37:00" />
      <leg mode="car" />
      <activity type="shops" x="778482.57737" y="5744462.75843" end_time="20:33:00" />
      <leg mode="car" />
      <activity type="home" x="777528.01183" y="5744592.20828" />
    </plan>
  </person>


  <!--Regular visitor is at home when INITIAL_RESPONSE threshold breached, and shelters there for duration of fire.
  JR:verified-->
  <person id= "14" >
    <attributes>
      <attribute name="BDIAgentType" class="java.lang.String" >io.github.agentsoz.ees.agents.bushfire.VisitorRegular</attribute>
      <attribute name="HasDependentsAtLocation" class="java.lang.String" ></attribute>
      <attribute name="InitialResponseThreshold" class="java.lang.Double" >0.3</attribute>
      <attribute name="FinalResponseThreshold"   class="java.lang.Double" >0.7</attribute>
      <attribute name="WillGoHomeAfterVisitingDependents" class="java.lang.Boolean" >false</attribute>
      <attribute name="WillGoHomeBeforeLeaving" class="java.lang.Boolean" >true</attribute>
      <attribute name="EvacLocationPreference" class="java.lang.String">Torquay Foreshore,790771,5752462</attribute>
      <attribute name="InvacLocationPreference" class="java.lang.String">Anglesea Shops,777471,5742412</attribute>
      <attribute name="sharesInfoWithSocialNetwork" class="java.lang.Boolean">true</attribute>
    </attributes>
    <plan selected="yes">
      <activity type="home" x="778998.95182" y="5744092.75721" end_time="00:01:00" />
      <leg mode="car" />
      <activity type="other" x="778948.04363" y="5744611.19874" end_time="02:08:00" />
      <leg mode="car" />
      <activity type="home" x="778998.95182" y="5744092.75721" end_time="15:48:00" />
      <leg mode="car" />
      <activity type="shops" x="778482.57737" y="5744462.75843" end_time="16:33:00" />
      <leg mode="car" />
      <activity type="beach" x="778237.06886" y="5743964.79164" end_time="18:21:00" />
      <leg mode="car" />
      <activity type="home" x="778998.95182" y="5744092.75721" />
    </plan>
  </person>


<!--INTERESTING PROBLEM SITUATIONSvvvvvvvvvvv-->

  <!--&lt;!&ndash;skip-->
  <!--cccc this agent seems to be going through the burnt area at around 9.15pm&ndash;&gt;-->
  <!--&lt;!&ndash;DS: yes this definitely seems to go through the fire.&ndash;&gt;-->
  <!--&lt;!&ndash;TODO: verify again and reopen ticket #36 &ndash;&gt;&ndash;&gt;-->
  <!--<person id= "11" >-->
  <!--<attributes>-->
  <!--<attribute name="BDIAgentType" class="java.lang.String" >io.github.agentsoz.ees.agents.bushfire.VisitorDaytime</attribute>-->
  <!--<attribute name="HasDependentsAtLocation" class="java.lang.String" ></attribute>-->
  <!--<attribute name="InitialResponseThreshold" class="java.lang.Double" >1.0</attribute>-->
  <!--<attribute name="FinalResponseThreshold"   class="java.lang.Double" >1.0</attribute>-->
  <!--<attribute name="EvacLocationPreference" class="java.lang.String">Torquay Foreshore,790771,5752462</attribute>-->
  <!--<attribute name="InvacLocationPreference" class="java.lang.String">Anglesea Shops,777471,5742412</attribute>-->
  <!--</attributes>-->
  <!--<plan selected="yes">-->