<?xml version="1.0" encoding="utf-8"?>
<!DOCTYPE population SYSTEM "http://www.matsim.org/files/dtd/population_v6.dtd">
  <population>
  <!-- ====================================================================== -->
  <person id= "0" >
    <attributes>
      <attribute name="BDIAgentType" class="java.lang.String" >io.github.agentsoz.ees.agents.bushfire.Resident</attribute>
    </attributes>
    <plan selected="yes">
      <activity type="home" x="777487.95417" y="5742688.0183" end_time="09:58:00" />
      <leg mode="car" />
      <activity type="work" x="778210.63486" y="5744138.97464" end_time="20:47:00" />
      <leg mode="car" />
      <activity type="home" x="777487.95417" y="5742688.0183" />
    </plan>
  </person>

  <person id= "1" >
    <attributes>
      <attribute name="BDIAgentType" class="java.lang.String" >io.github.agentsoz.ees.agents.bushfire.Resident</attribute>
    </attributes>
    <plan selected="yes">
      <activity type="home" x="793533.93691" y="5770266.87819" end_time="09:46:00" />
      <leg mode="car" />
      <activity type="other" x="793534.67335" y="5769831.90665" end_time="12:55:00" />
      <leg mode="car" />
      <activity type="home" x="793533.93691" y="5770266.87819" end_time="15:16:00" />
      <leg mode="car" />
      <activity type="beach" x="794920.60169" y="5772690.71159" end_time="16:02:00" />
      <leg mode="car" />
      <activity type="home" x="793533.93691" y="5770266.87819" />
    </plan>
  </person>

  <person id= "2" >
    <attributes>
      <attribute name="BDIAgentType" class="java.lang.String" >io.github.agentsoz.ees.agents.bushfire.Resident</attribute>
    </attributes>
    <plan selected="yes">
      <activity type="home" x="749728.40714" y="5771140.4626" end_time="06:21:00" />
      <leg mode="car" />
      <activity type="work" x="761289.50657" y="5762130.29619" end_time="15:38:00" />
      <leg mode="car" />
      <activity type="beach" x="794920.60169" y="5772690.71159" end_time="19:45:00" />
      <leg mode="car" />
      <activity type="home" x="749728.40714" y="5771140.4626" end_time="20:23:00" />
      <leg mode="car" />
      <activity type="other" x="778546.67853" y="5744446.73313" end_time="23:05:00" />
      <leg mode="car" />
      <activity type="home" x="749728.40714" y="5771140.4626" />
    </plan>
  </person>

  <person id= "3" >
    <attributes>
      <attribute name="BDIAgentType" class="java.lang.String" >io.github.agentsoz.ees.agents.bushfire.Resident</attribute>
    </attributes>
    <plan selected="yes">
      <activity type="home" x="767518.31157" y="5773276.10213" end_time="06:29:00" />
      <leg mode="car" />
      <activity type="shops" x="792871.83966" y="5770473.28821" end_time="08:01:00" />
      <leg mode="car" />
      <activity type="home" x="767518.31157" y="5773276.10213" end_time="10:59:00" />
      <leg mode="car" />
      <activity type="beach" x="759326.8826" y="5729839.13291" end_time="12:30:00" />
      <leg mode="car" />
      <activity type="shops" x="761647.31617" y="5762952.48569" end_time="15:21:00" />
      <leg mode="car" />
      <activity type="beach" x="790006.00295" y="5750945.9283" end_time="17:53:00" />
      <leg mode="car" />
      <activity type="work" x="790484.60538" y="5754857.18225" end_time="23:59:00" />
      <leg mode="car" />
      <activity type="home" x="767518.31157" y="5773276.10213" />
    </plan>
  </person>

  <person id= "4" >
    <attributes>
      <attribute name="BDIAgentType" class="java.lang.String" >io.github.agentsoz.ees.agents.bushfire.Resident</attribute>
    </attributes>
    <plan selected="yes">
      <activity type="home" x="778824.77616" y="5744728.18944" end_time="13:42:00" />
      <leg mode="car" />
      <activity type="work" x="779012.88562" y="5744520.34118" end_time="17:25:00" />
      <leg mode="car" />
      <activity type="home" x="778824.77616" y="5744728.18944" />
    </plan>
  </person>

  <person id= "5" >
    <attributes>
      <attribute name="BDIAgentType" class="java.lang.String" >io.github.agentsoz.ees.agents.bushfire.Resident</attribute>
    </attributes>
    <plan selected="yes">
      <activity type="home" x="759084.76095" y="5730972.71061" end_time="10:10:00" />
      <leg mode="car" />
      <activity type="shops" x="759294.96025" y="5730628.35413" end_time="12:17:00" />
      <leg mode="car" />
      <activity type="work" x="759492.64698" y="5730627.75413" end_time="21:26:00" />
      <leg mode="car" />
      <activity type="shops" x="759294.96025" y="5730628.35413" end_time="23:14:00" />
      <leg mode="car" />
      <activity type="home" x="759084.76095" y="5730972.71061" />
    </plan>
  </person>

  <person id= "6" >
    <attributes>
      <attribute name="BDIAgentType" class="java.lang.String" >io.github.agentsoz.ees.agents.bushfire.Resident</attribute>
    </attributes>
    <plan selected="yes">
      <activity type="home" x="785777.29384" y="5767335.61062" end_time="00:01:00" />
      <leg mode="car" />
      <activity type="work" x="789848.05453" y="5752795.44381" end_time="04:50:00" />
      <leg mode="car" />
      <activity type="home" x="785777.29384" y="5767335.61062" end_time="07:49:00" />
      <leg mode="car" />
      <activity type="work" x="786334.34808" y="5764005.76275" end_time="10:07:00" />
      <leg mode="car" />
      <activity type="home" x="785777.29384" y="5767335.61062" end_time="12:18:00" />
      <leg mode="car" />
      <activity type="work" x="786334.34808" y="5764005.76275" end_time="17:31:00" />
      <leg mode="car" />
      <activity type="other" x="792837.45553" y="5769972.52889" end_time="19:51:00" />
      <leg mode="car" />
      <activity type="home" x="785777.29384" y="5767335.61062" />
    </plan>
  </person>

  <person id= "7" >
    <attributes>
      <attribute name="BDIAgentType" class="java.lang.String" >io.github.agentsoz.ees.agents.bushfire.Resident</attribute>
    </attributes>
    <plan selected="yes">
      <activity type="home" x="790378.41742" y="5753356.36182" end_time="08:57:00" />
      <leg mode="car" />
      <activity type="work" x="790098.62271" y="5754759.19639" end_time="12:06:00" />
      <leg mode="car" />
      <activity type="shops" x="790357.10312" y="5752184.65303" end_time="16:16:00" />
      <leg mode="car" />
      <activity type="work" x="789848.05453" y="5752795.44381" end_time="21:59:00" />
      <leg mode="car" />
      <activity type="home" x="790378.41742" y="5753356.36182" />
    </plan>
  </person>

  <person id= "8" >
    <attributes>
      <attribute name="BDIAgentType" class="java.lang.String" >io.github.agentsoz.ees.agents.bushfire.Resident</attribute>
    </attributes>
    <plan selected="yes">
      <activity type="home" x="788696.08706" y="5751173.9917" end_time="10:09:00" />
      <leg mode="car" />
      <activity type="work" x="789434.99816" y="5751266.44194" end_time="15:15:00" />
      <leg mode="car" />
      <activity type="beach" x="788528.10978" y="5750214.98843" end_time="16:16:00" />
      <leg mode="car" />
      <activity type="work" x="789434.99816" y="5751266.44194" end_time="20:35:00" />
      <leg mode="car" />
      <activity type="home" x="788696.08706" y="5751173.9917" />
    </plan>
  </person>

  <person id= "9" >
    <attributes>
      <attribute name="BDIAgentType" class="java.lang.String" >io.github.agentsoz.ees.agents.bushfire.Resident</attribute>
    </attributes>
    <plan selected="yes">
      <activity type="home" x="793417.98808" y="5754523.70157" end_time="08:37:00" />
      <leg mode="car" />
      <activity type="work" x="792919.68545" y="5754526.38383" end_time="21:48:00" />
      <leg mode="car" />
      <activity type="home" x="793417.98808" y="5754523.70157" />
    </plan>
  </person>

  <person id= "10" >
    <attributes>
      <attribute name="BDIAgentType" class="java.lang.String" >io.github.agentsoz.ees.agents.bushfire.ResidentPartTime</attribute>
    </attributes>
    <plan selected="yes">
      <activity type="home" x="754643.36542" y="5733062.36498" end_time="11:23:00" />
      <leg mode="car" />
      <activity type="beach" x="759326.8826" y="5729839.13291" end_time="12:28:00" />
      <leg mode="car" />
      <activity type="shops" x="759294.96025" y="5730628.35413" end_time="15:39:00" />
      <leg mode="car" />
      <activity type="other" x="759074.12513" y="5730215.34091" end_time="16:03:00" />
      <leg mode="car" />
      <activity type="home" x="754643.36542" y="5733062.36498" end_time="18:45:00" />
      <leg mode="car" />
      <activity type="shops" x="759317.42351" y="5729964.86105" end_time="20:21:00" />
      <leg mode="car" />
      <activity type="home" x="754643.36542" y="5733062.36498" />
    </plan>
  </person>

  <person id= "11" >
    <attributes>
      <attribute name="BDIAgentType" class="java.lang.String" >io.github.agentsoz.ees.agents.bushfire.ResidentPartTime</attribute>
    </attributes>
    <plan selected="yes">
      <activity type="home" x="759897.29075" y="5753954.22426" end_time="07:13:00" />
      <leg mode="car" />
      <activity type="shops" x="759294.96025" y="5730628.35413" end_time="08:03:00" />
      <leg mode="car" />
      <activity type="home" x="759897.29075" y="5753954.22426" end_time="11:10:00" />
      <leg mode="car" />
      <activity type="beach" x="786255.54497" y="5747965.81546" end_time="13:33:00" />
      <leg mode="car" />
      <activity type="home" x="759897.29075" y="5753954.22426" end_time="15:11:00" />
      <leg mode="car" />
      <activity type="shops" x="789974.17245" y="5752810.54643" end_time="16:29:00" />
      <leg mode="car" />
      <activity type="home" x="759897.29075" y="5753954.22426" />
    </plan>
  </person>

  <person id= "12" >
    <attributes>
      <attribute name="BDIAgentType" class="java.lang.String" >io.github.agentsoz.ees.agents.bushfire.ResidentPartTime</attribute>
    </attributes>
    <plan selected="yes">
      <activity type="home" x="788325.71422" y="5750146.95933" end_time="07:18:00" />
      <leg mode="car" />
      <activity type="other" x="789863.66729" y="5753170.47836" end_time="11:04:00" />
      <leg mode="car" />
      <activity type="work" x="789848.05453" y="5752795.44381" end_time="15:25:00" />
      <leg mode="car" />
      <activity type="shops" x="789902.15203" y="5752276.48654" end_time="17:38:00" />
      <leg mode="car" />
      <activity type="other" x="778546.67853" y="5744446.73313" end_time="18:01:00" />
      <leg mode="car" />
      <activity type="shops" x="790670.88255" y="5752085.50432" end_time="21:12:00" />
      <leg mode="car" />
      <activity type="home" x="788325.71422" y="5750146.95933" />
    </plan>
  </person>

  <person id= "13" >
    <attributes>
      <attribute name="BDIAgentType" class="java.lang.String" >io.github.agentsoz.ees.agents.bushfire.ResidentPartTime</attribute>
    </attributes>
    <plan selected="yes">
      <activity type="home" x="758838.77263" y="5730582.04375" end_time="06:20:00" />
      <leg mode="car" />
      <activity type="work" x="759310.02792" y="5730461.39643" end_time="15:48:00" />
      <leg mode="car" />
      <activity type="other" x="759074.12513" y="5730215.34091" end_time="16:17:00" />
      <leg mode="car" />
      <activity type="home" x="758838.77263" y="5730582.04375" end_time="18:01:00" />
      <leg mode="car" />
      <activity type="work" x="759163.59908" y="5730338.60707" end_time="23:53:00" />
      <leg mode="car" />
      <activity type="home" x="758838.77263" y="5730582.04375" />
    </plan>
  </person>

  <person id= "14" >
    <attributes>
      <attribute name="BDIAgentType" class="java.lang.String" >io.github.agentsoz.ees.agents.bushfire.ResidentPartTime</attribute>
    </attributes>
    <plan selected="yes">
      <activity type="home" x="783473.54056" y="5752883.62806" end_time="07:24:00" />
      <leg mode="car" />
      <activity type="other" x="789863.66729" y="5753170.47836" end_time="08:43:00" />
      <leg mode="car" />
      <activity type="shops" x="789902.15203" y="5752276.48654" end_time="11:11:00" />
      <leg mode="car" />
      <activity type="work" x="789848.05453" y="5752795.44381" end_time="22:54:00" />
      <leg mode="car" />
      <activity type="home" x="783473.54056" y="5752883.62806" />
    </plan>
  </person>

  <person id= "15" >
    <attributes>
      <attribute name="BDIAgentType" class="java.lang.String" >io.github.agentsoz.ees.agents.bushfire.ResidentPartTime</attribute>
    </attributes>
    <plan selected="yes">
      <activity type="home" x="771567.16183" y="5740494.80258" end_time="09:40:00" />
      <leg mode="car" />
      <activity type="shops" x="778279.66613" y="5743500.15352" end_time="10:29:00" />
      <leg mode="car" />
      <activity type="work" x="771154.38036" y="5738979.16897" end_time="15:21:00" />
      <leg mode="car" />
      <activity type="beach" x="776580.38162" y="5741915.32936" end_time="16:04:00" />
      <leg mode="car" />
      <activity type="shops" x="770351.40111" y="5738001.92605" end_time="19:28:00" />
      <leg mode="car" />
      <activity type="home" x="771567.16183" y="5740494.80258" />
    </plan>
  </person>

  <person id= "16" >
    <attributes>
      <attribute name="BDIAgentType" class="java.lang.String" >io.github.agentsoz.ees.agents.bushfire.ResidentPartTime</attribute>
    </attributes>
    <plan selected="yes">
      <activity type="home" x="780753.25428" y="5767013.16781" end_time="08:42:00" />
      <leg mode="car" />
      <activity type="beach" x="788528.10978" y="5750214.98843" end_time="11:59:00" />
      <leg mode="car" />
      <activity type="home" x="780753.25428" y="5767013.16781" end_time="12:45:00" />
      <leg mode="car" />
      <activity type="shops" x="789974.17245" y="5752810.54643" end_time="16:55:00" />
      <leg mode="car" />
      <activity type="other" x="793202.25852" y="5769898.53301" end_time="18:34:00" />
      <leg mode="car" />
      <activity type="home" x="780753.25428" y="5767013.16781" />
    </plan>
  </person>

  <person id= "17" >
    <attributes>
      <attribute name="BDIAgentType" class="java.lang.String" >io.github.agentsoz.ees.agents.bushfire.ResidentPartTime</attribute>
    </attributes>
    <plan selected="yes">
      <activity type="home" x="770458.68409" y="5740337.03898" end_time="02:53:00" />
      <leg mode="car" />
      <activity type="other" x="771374.44073" y="5738835.66619" end_time="04:58:00" />
      <leg mode="car" />
      <activity type="home" x="770458.68409" y="5740337.03898" end_time="07:54:00" />
      <leg mode="car" />
      <activity type="shops" x="761647.31617" y="5762952.48569" end_time="08:07:00" />
      <leg mode="car" />
      <activity type="home" x="770458.68409" y="5740337.03898" end_time="11:07:00" />
      <leg mode="car" />
      <activity type="work" x="771120.82582" y="5738818.00056" end_time="15:21:00" />
      <leg mode="car" />
      <activity type="shops" x="778433.82508" y="5744429.17115" end_time="17:35:00" />
      <leg mode="car" />
      <activity type="other" x="771374.44073" y="5738835.66619" end_time="19:22:00" />
      <leg mode="car" />
      <activity type="home" x="770458.68409" y="5740337.03898" />
    </plan>
  </person>

  <person id= "18" >
    <attributes>
      <attribute name="BDIAgentType" class="java.lang.String" >io.github.agentsoz.ees.agents.bushfire.ResidentPartTime</attribute>
    </attributes>
    <plan selected="yes">
      <activity type="home" x="743321.97342" y="5752746.13801" end_time="13:03:00" />
      <leg mode="car" />
      <activity type="beach" x="753128.71399" y="5720791.13233" end_time="14:29:00" />
      <leg mode="car" />
      <activity type="shops" x="743497.21054" y="5753100.09307" end_time="17:43:00" />
      <leg mode="car" />
      <activity type="other" x="733052.04408" y="5756331.45377" end_time="19:13:00" />
      <leg mode="car" />
      <activity type="home" x="743321.97342" y="5752746.13801" />
    </plan>
  </person>

  <person id= "19" >
    <attributes>
      <attribute name="BDIAgentType" class="java.lang.String" >io.github.agentsoz.ees.agents.bushfire.ResidentPartTime</attribute>
    </attributes>
    <plan selected="yes">
      <activity type="home" x="770811.32212" y="5738891.55042" end_time="13:56:00" />
      <leg mode="car" />
      <activity type="work" x="770968.05532" y="5738364.60103" end_time="16:28:00" />
      <leg mode="car" />
      <activity type="home" x="770811.32212" y="5738891.55042" />
    </plan>
  </person>

  <person id= "20" >
    <attributes>
      <attribute name="BDIAgentType" class="java.lang.String" >io.github.agentsoz.ees.agents.bushfire.VisitorRegular</attribute>
    </attributes>
    <plan selected="yes">
      <activity type="home" x="777528.01183" y="5744592.20828" end_time="13:11:00" />
      <leg mode="car" />
      <activity type="beach" x="778406.90316" y="5743587.79637" end_time="17:41:00" />
      <leg mode="car" />
      <activity type="home" x="777528.01183" y="5744592.20828" end_time="18:37:00" />
      <leg mode="car" />
      <activity type="shops" x="778482.57737" y="5744462.75843" end_time="20:33:00" />
      <leg mode="car" />
      <activity type="home" x="777528.01183" y="5744592.20828" />
    </plan>
  </person>

  <person id= "21" >
    <attributes>
      <attribute name="BDIAgentType" class="java.lang.String" >io.github.agentsoz.ees.agents.bushfire.VisitorRegular</attribute>
    </attributes>
    <plan selected="yes">
      <activity type="home" x="775483.2726" y="5780997.38201" end_time="06:58:00" />
      <leg mode="car" />
      <activity type="other" x="778507.88547" y="5744455.63954" end_time="09:05:00" />
      <leg mode="car" />
      <activity type="home" x="775483.2726" y="5780997.38201" end_time="10:34:00" />
      <leg mode="car" />
      <activity type="other" x="778358.96582" y="5743692.86289" end_time="12:43:00" />
      <leg mode="car" />
      <activity type="home" x="775483.2726" y="5780997.38201" end_time="14:02:00" />
      <leg mode="car" />
      <activity type="other" x="778948.04363" y="5744611.19874" end_time="16:22:00" />
      <leg mode="car" />
      <activity type="shops" x="792871.83966" y="5770473.28821" end_time="19:45:00" />
      <leg mode="car" />
      <activity type="home" x="775483.2726" y="5780997.38201" />
    </plan>
  </person>

  <person id= "22" >
    <attributes>
      <attribute name="BDIAgentType" class="java.lang.String" >io.github.agentsoz.ees.agents.bushfire.VisitorRegular</attribute>
    </attributes>
    <plan selected="yes">
      <activity type="home" x="775498.6485" y="5770984.14732" end_time="10:14:00" />
      <leg mode="car" />
      <activity type="shops" x="761647.31617" y="5762952.48569" end_time="13:30:00" />
      <leg mode="car" />
      <activity type="beach" x="788528.10978" y="5750214.98843" end_time="15:11:00" />
      <leg mode="car" />
      <activity type="other" x="777412.78017" y="5744008.09442" end_time="17:42:00" />
      <leg mode="car" />
      <activity type="shops" x="777902.25512" y="5762634.6724" end_time="18:37:00" />
      <leg mode="car" />
      <activity type="home" x="775498.6485" y="5770984.14732" end_time="21:01:00" />
      <leg mode="car" />
      <activity type="other" x="778358.96582" y="5743692.86289" end_time="23:57:00" />
      <leg mode="car" />
      <activity type="shops" x="777902.25512" y="5762634.6724" end_time="23:59:00" />
      <leg mode="car" />
      <activity type="home" x="775498.6485" y="5770984.14732" />
    </plan>
  </person>

  <person id= "23" >
    <attributes>
      <attribute name="BDIAgentType" class="java.lang.String" >io.github.agentsoz.ees.agents.bushfire.VisitorRegular</attribute>
    </attributes>
    <plan selected="yes">
      <activity type="home" x="778998.95182" y="5744092.75721" end_time="00:01:00" />
      <leg mode="car" />
      <activity type="other" x="778948.04363" y="5744611.19874" end_time="02:08:00" />
      <leg mode="car" />
      <activity type="home" x="778998.95182" y="5744092.75721" end_time="13:48:00" />
      <leg mode="car" />
      <activity type="shops" x="778482.57737" y="5744462.75843" end_time="14:33:00" />
      <leg mode="car" />
      <activity type="beach" x="778237.06886" y="5743964.79164" end_time="17:21:00" />
      <leg mode="car" />
      <activity type="home" x="778998.95182" y="5744092.75721" />
    </plan>
  </person>

  <person id= "24" >
    <attributes>
      <attribute name="BDIAgentType" class="java.lang.String" >io.github.agentsoz.ees.agents.bushfire.VisitorRegular</attribute>
    </attributes>
    <plan selected="yes">
      <activity type="home" x="746242.57298" y="5746659.62266" end_time="00:01:00" />
      <leg mode="car" />
      <activity type="other" x="777412.78017" y="5744008.09442" end_time="02:18:00" />
      <leg mode="car" />
      <activity type="home" x="746242.57298" y="5746659.62266" end_time="15:50:00" />
      <leg mode="car" />
      <activity type="beach" x="786985.47082" y="5748372.83646" end_time="17:40:00" />
      <leg mode="car" />
      <activity type="home" x="746242.57298" y="5746659.62266" end_time="19:21:00" />
      <leg mode="car" />
      <activity type="other" x="778507.88547" y="5744455.63954" end_time="21:09:00" />
      <leg mode="car" />
      <activity type="home" x="746242.57298" y="5746659.62266" />
    </plan>
  </person>

  <person id= "25" >
    <attributes>
      <attribute name="BDIAgentType" class="java.lang.String" >io.github.agentsoz.ees.agents.bushfire.VisitorRegular</attribute>
    </attributes>
    <plan selected="yes">
      <activity type="home" x="756381.81591" y="5750607.90978" end_time="12:29:00" />
      <leg mode="car" />
      <activity type="shops" x="761647.31617" y="5762952.48569" end_time="15:51:00" />
      <leg mode="car" />
      <activity type="beach" x="776580.38162" y="5741915.32936" end_time="16:40:00" />
      <leg mode="car" />
      <activity type="home" x="756381.81591" y="5750607.90978" end_time="18:10:00" />
      <leg mode="car" />
      <activity type="beach" x="803106.49192" y="5756854.63356" end_time="21:15:00" />
      <leg mode="car" />
      <activity type="home" x="756381.81591" y="5750607.90978" />
    </plan>
  </person>

  <person id= "26" >
    <attributes>
      <attribute name="BDIAgentType" class="java.lang.String" >io.github.agentsoz.ees.agents.bushfire.VisitorRegular</attribute>
    </attributes>
    <plan selected="yes">
      <activity type="home" x="768173.37241" y="5779204.83658" end_time="16:05:00" />
      <leg mode="car" />
      <activity type="other" x="778948.04363" y="5744611.19874" end_time="19:50:00" />
      <leg mode="car" />
      <activity type="home" x="768173.37241" y="5779204.83658" />
    </plan>
  </person>

  <person id= "27" >
    <attributes>
      <attribute name="BDIAgentType" class="java.lang.String" >io.github.agentsoz.ees.agents.bushfire.VisitorRegular</attribute>
    </attributes>
    <plan selected="yes">
      <activity type="home" x="759814.11891" y="5731412.6962" end_time="11:29:00" />
      <leg mode="car" />
      <activity type="beach" x="759551.54671" y="5730602.07326" end_time="12:12:00" />
      <leg mode="car" />
      <activity type="other" x="767533.87321" y="5747333.10942" end_time="15:57:00" />
      <leg mode="car" />
      <activity type="beach" x="759551.54671" y="5730602.07326" end_time="17:04:00" />
      <leg mode="car" />
      <activity type="shops" x="759317.42351" y="5729964.86105" end_time="18:43:00" />
      <leg mode="car" />
      <activity type="other" x="777412.78017" y="5744008.09442" end_time="20:24:00" />
      <leg mode="car" />
      <activity type="home" x="759814.11891" y="5731412.6962" />
    </plan>
  </person>

  <person id= "28" >
    <attributes>
      <attribute name="BDIAgentType" class="java.lang.String" >io.github.agentsoz.ees.agents.bushfire.VisitorRegular</attribute>
    </attributes>
    <plan selected="yes">
      <activity type="home" x="775498.6485" y="5770984.14732" end_time="13:41:00" />
      <leg mode="car" />
      <activity type="beach" x="788528.10978" y="5750214.98843" end_time="15:54:00" />
      <leg mode="car" />
      <activity type="shops" x="777902.25512" y="5762634.6724" end_time="16:42:00" />
      <leg mode="car" />
      <activity type="other" x="778948.04363" y="5744611.19874" end_time="19:18:00" />
      <leg mode="car" />
      <activity type="shops" x="778482.57737" y="5744462.75843" end_time="23:44:00" />
      <leg mode="car" />
      <activity type="home" x="775498.6485" y="5770984.14732" />
    </plan>
  </person>

  <person id= "29" >
    <attributes>
      <attribute name="BDIAgentType" class="java.lang.String" >io.github.agentsoz.ees.agents.bushfire.VisitorRegular</attribute>
    </attributes>
    <plan selected="yes">
      <activity type="home" x="787800.28023" y="5753848.22042" end_time="14:45:00" />
      <leg mode="car" />
      <activity type="beach" x="790861.74053" y="5752552.89152" end_time="18:35:00" />
      <leg mode="car" />
      <activity type="shops" x="789902.15203" y="5752276.48654" end_time="20:34:00" />
      <leg mode="car" />
      <activity type="home" x="787800.28023" y="5753848.22042" />
    </plan>
  </person>

  <person id= "30" >
    <attributes>
      <attribute name="BDIAgentType" class="java.lang.String" >io.github.agentsoz.ees.agents.bushfire.VisitorOvernight</attribute>
    </attributes>
    <plan selected="yes">
      <activity type="home" x="771120.82582" y="5738818.00056" end_time="07:07:00" />
      <leg mode="car" />
      <activity type="other" x="777412.78017" y="5744008.09442" end_time="11:49:00" />
      <leg mode="car" />
      <activity type="beach" x="777498.11629" y="5741920.33946" end_time="17:54:00" />
      <leg mode="car" />
      <activity type="shops" x="770351.40111" y="5738001.92605" end_time="19:39:00" />
      <leg mode="car" />
      <activity type="home" x="771120.82582" y="5738818.00056" end_time="21:19:00" />
      <leg mode="car" />
      <activity type="other" x="778836.49665" y="5745094.30493" end_time="22:19:00" />
      <leg mode="car" />
      <activity type="home" x="771120.82582" y="5738818.00056" />
    </plan>
  </person>

  <person id= "31" >
    <attributes>
      <attribute name="BDIAgentType" class="java.lang.String" >io.github.agentsoz.ees.agents.bushfire.VisitorOvernight</attribute>
    </attributes>
    <plan selected="yes">
      <activity type="home" x="771120.82582" y="5738818.00056" end_time="04:38:00" />
      <leg mode="car" />
      <activity type="beach" x="786985.47082" y="5748372.83646" end_time="06:45:00" />
      <leg mode="car" />
      <activity type="other" x="778358.96582" y="5743692.86289" end_time="10:35:00" />
      <leg mode="car" />
      <activity type="beach" x="783893.9946" y="5745788.90364" end_time="14:12:00" />
      <leg mode="car" />
      <activity type="shops" x="770351.40111" y="5738001.92605" end_time="16:50:00" />
      <leg mode="car" />
      <activity type="other" x="778507.88547" y="5744455.63954" end_time="19:22:00" />
      <leg mode="car" />
      <activity type="shops" x="759317.42351" y="5729964.86105" end_time="20:34:00" />
      <leg mode="car" />
      <activity type="home" x="771120.82582" y="5738818.00056" />
    </plan>
  </person>

  <person id= "32" >
    <attributes>
      <attribute name="BDIAgentType" class="java.lang.String" >io.github.agentsoz.ees.agents.bushfire.VisitorOvernight</attribute>
    </attributes>
    <plan selected="yes">
      <activity type="home" x="756924.90574" y="5726253.79922" end_time="07:11:00" />
      <leg mode="car" />
      <activity type="other" x="767533.87321" y="5747333.10942" end_time="11:37:00" />
      <leg mode="car" />
      <activity type="shops" x="759317.42351" y="5729964.86105" end_time="12:39:00" />
      <leg mode="car" />
      <activity type="beach" x="753128.71399" y="5720791.13233" end_time="15:16:00" />
      <leg mode="car" />
      <activity type="home" x="756924.90574" y="5726253.79922" end_time="17:42:00" />
      <leg mode="car" />
      <activity type="shops" x="759294.96025" y="5730628.35413" end_time="20:05:00" />
      <leg mode="car" />
      <activity type="home" x="756924.90574" y="5726253.79922" />
    </plan>
  </person>

  <person id= "33" >
    <attributes>
      <attribute name="BDIAgentType" class="java.lang.String" >io.github.agentsoz.ees.agents.bushfire.VisitorOvernight</attribute>
    </attributes>
    <plan selected="yes">
      <activity type="home" x="777412.78017" y="5744008.09442" end_time="06:51:00" />
      <leg mode="car" />
      <activity type="other" x="778358.96582" y="5743692.86289" end_time="11:26:00" />
      <leg mode="car" />
      <activity type="beach" x="778237.06886" y="5743964.79164" end_time="16:31:00" />
      <leg mode="car" />
      <activity type="shops" x="778279.66613" y="5743500.15352" end_time="23:16:00" />
      <leg mode="car" />
      <activity type="home" x="777412.78017" y="5744008.09442" />
    </plan>
  </person>

  <person id= "34" >
    <attributes>
      <attribute name="BDIAgentType" class="java.lang.String" >io.github.agentsoz.ees.agents.bushfire.VisitorOvernight</attribute>
    </attributes>
    <plan selected="yes">
      <activity type="home" x="759175.87554" y="5731742.96741" end_time="06:22:00" />
      <leg mode="car" />
      <activity type="beach" x="759551.54671" y="5730602.07326" end_time="08:54:00" />
      <leg mode="car" />
      <activity type="shops" x="759294.96025" y="5730628.35413" end_time="11:41:00" />
      <leg mode="car" />
      <activity type="beach" x="759326.8826" y="5729839.13291" end_time="13:44:00" />
      <leg mode="car" />
      <activity type="shops" x="759294.96025" y="5730628.35413" end_time="14:24:00" />
      <leg mode="car" />
      <activity type="beach" x="759551.54671" y="5730602.07326" end_time="16:13:00" />
      <leg mode="car" />
      <activity type="other" x="777412.78017" y="5744008.09442" end_time="19:08:00" />
      <leg mode="car" />