<?xml version="1.0" encoding="utf-8"?>
<!DOCTYPE population SYSTEM "http://www.matsim.org/files/dtd/population_v6.dtd">
  <population>
  <!-- ====================================================================== -->
  <!-- Regular MATSim agent can be convered to BDI agents
       using the "BDIAgentType" tag that specifies the agent's type
       i.e., the Jill agent's Java class.
  -->
  <!-- InitialResponseThreshold and FinalResponseThreshold are
       threshold values (between 0.0 - 1.0) that control the
       agent's two-stage response to an unfolding situation, with lower
       values indicating a propensity to respond sooner to information
       (i.e., evacuation messages, visibility of smoke/fire, and such).
       Always InitialResponseThreshold =< FinalResponseThreshold.
  -->
  <!-- ====================================================================== -->

  <person id= "0" >
    <attributes>
      <attribute name="BDIAgentType" class="java.lang.String" >io.github.agentsoz.ees.agents.bushfire.Resident</attribute>
      <attribute name="hasDependents" class="java.lang.Boolean" >true</attribute>
      <attribute name="InitialResponseThreshold" class="java.lang.Double" >-10.0 <!-- incorrect intentionally; should be treated as 0.0 --></attribute>
      <attribute name="FinalResponseThreshold"   class="java.lang.Double" >0.0</attribute>
    </attributes>
    <plan selected="yes">
      <activity type="home" x="777487.95417" y="5742688.0183" end_time="09:58:00" />
      <leg mode="car" />
      <activity type="work" x="778210.63486" y="5744138.97464" end_time="20:47:00" />
      <leg mode="car" />
      <activity type="home" x="777487.95417" y="5742688.0183" />
    </plan>
  </person>

  <person id= "1" >
    <attributes>
      <attribute name="BDIAgentType" class="java.lang.String" >io.github.agentsoz.ees.agents.bushfire.Resident</attribute>
      <attribute name="hasDependents" class="java.lang.Boolean" >true</attribute>
      <attribute name="InitialResponseThreshold" class="java.lang.Double" >0.2</attribute>
      <attribute name="FinalResponseThreshold"   class="java.lang.Double" >0.5</attribute>
    </attributes>
    <plan selected="yes">
      <activity type="home" x="793533.93691" y="5770266.87819" end_time="09:46:00" />
      <leg mode="car" />
      <activity type="other" x="793534.67335" y="5769831.90665" end_time="12:55:00" />
      <leg mode="car" />
      <activity type="home" x="793533.93691" y="5770266.87819" end_time="15:16:00" />
      <leg mode="car" />
      <activity type="beach" x="794920.60169" y="5772690.71159" end_time="16:02:00" />
      <leg mode="car" />
      <activity type="home" x="793533.93691" y="5770266.87819" />
    </plan>
  </person>

  <person id= "2" >
    <attributes>
      <attribute name="BDIAgentType" class="java.lang.String" >io.github.agentsoz.ees.agents.bushfire.Resident</attribute>
      <attribute name="hasDependents" class="java.lang.Boolean" >true</attribute>
      <attribute name="InitialResponseThreshold" class="java.lang.Double" >0.4</attribute>
      <attribute name="FinalResponseThreshold"   class="java.lang.Double" >0.7</attribute>
    </attributes>
    <plan selected="yes">
      <activity type="home" x="749728.40714" y="5771140.4626" end_time="06:21:00" />
      <leg mode="car" />
      <activity type="work" x="761289.50657" y="5762130.29619" end_time="15:38:00" />
      <leg mode="car" />
      <activity type="beach" x="794920.60169" y="5772690.71159" end_time="19:45:00" />
      <leg mode="car" />
      <activity type="home" x="749728.40714" y="5771140.4626" end_time="20:23:00" />
      <leg mode="car" />
      <activity type="other" x="778546.67853" y="5744446.73313" end_time="23:05:00" />
      <leg mode="car" />
      <activity type="home" x="749728.40714" y="5771140.4626" />
    </plan>
  </person>

  <person id= "3" >
    <attributes>
      <attribute name="BDIAgentType" class="java.lang.String" >io.github.agentsoz.ees.agents.bushfire.Resident</attribute>
      <attribute name="hasDependents" class="java.lang.Boolean" >false</attribute>
      <attribute name="InitialResponseThreshold" class="java.lang.Double" >0.6</attribute>
      <attribute name="FinalResponseThreshold"   class="java.lang.Double" >1.8<!--incorrect intentionally; should be treated as 1.0--></attribute>
    </attributes>
    <plan selected="yes">
      <activity type="home" x="767518.31157" y="5773276.10213" end_time="06:29:00" />
      <leg mode="car" />
      <activity type="shops" x="792871.83966" y="5770473.28821" end_time="08:01:00" />
      <leg mode="car" />
      <activity type="home" x="767518.31157" y="5773276.10213" end_time="10:59:00" />
      <leg mode="car" />
      <activity type="beach" x="759326.8826" y="5729839.13291" end_time="12:30:00" />
      <leg mode="car" />
      <activity type="shops" x="761647.31617" y="5762952.48569" end_time="15:21:00" />
      <leg mode="car" />
      <activity type="beach" x="790006.00295" y="5750945.9283" end_time="17:53:00" />
      <leg mode="car" />
      <activity type="work" x="790484.60538" y="5754857.18225" end_time="23:59:00" />
      <leg mode="car" />
      <activity type="home" x="767518.31157" y="5773276.10213" />
    </plan>
  </person>

  <person id= "4" >
    <attributes>
      <attribute name="BDIAgentType" class="java.lang.String" >io.github.agentsoz.ees.agents.bushfire.Resident</attribute>
      <attribute name="hasDependents" class="java.lang.Boolean" >false</attribute>
      <attribute name="InitialResponseThreshold" class="java.lang.Double" >1.1<!--incorrect intentionally; should be treated as 1.0--></attribute>
      <attribute name="FinalResponseThreshold"   class="java.lang.Double" >0.9<!--lower than above intentionally; should be treated as equal to above, therefore 1.0--></attribute>
    </attributes>
    <plan selected="yes">
      <activity type="home" x="759084.76095" y="5730972.71061" end_time="10:10:00" />
      <leg mode="car" />
      <activity type="shops" x="759294.96025" y="5730628.35413" end_time="12:17:00" />
      <leg mode="car" />
      <activity type="work" x="759492.64698" y="5730627.75413" end_time="21:26:00" />
      <leg mode="car" />
      <activity type="shops" x="759294.96025" y="5730628.35413" end_time="23:14:00" />
      <leg mode="car" />
      <activity type="home" x="759084.76095" y="5730972.71061" />
    </plan>
  </person>

  <person id= "5" >
    <attributes>
      <attribute name="BDIAgentType" class="java.lang.String" >io.github.agentsoz.ees.agents.bushfire.ResidentPartTime</attribute>
      <attribute name="hasDependents" class="java.lang.Boolean" >true</attribute>
      <attribute name="InitialResponseThreshold" class="java.lang.Double" >0.0</attribute>
      <attribute name="FinalResponseThreshold"   class="java.lang.Double" >0.5</attribute>
    </attributes>
    <plan selected="yes">
      <activity type="home" x="754643.36542" y="5733062.36498" end_time="11:23:00" />
      <leg mode="car" />
      <activity type="beach" x="759326.8826" y="5729839.13291" end_time="12:28:00" />
      <leg mode="car" />
      <activity type="shops" x="759294.96025" y="5730628.35413" end_time="15:39:00" />
      <leg mode="car" />
      <activity type="other" x="759074.12513" y="5730215.34091" end_time="16:03:00" />
      <leg mode="car" />
      <activity type="home" x="754643.36542" y="5733062.36498" end_time="18:45:00" />
      <leg mode="car" />
      <activity type="shops" x="759317.42351" y="5729964.86105" end_time="20:21:00" />
      <leg mode="car" />
      <activity type="home" x="754643.36542" y="5733062.36498" />
    </plan>
  </person>

  <person id= "6" >
    <attributes>
      <attribute name="BDIAgentType" class="java.lang.String" >io.github.agentsoz.ees.agents.bushfire.ResidentPartTime</attribute>
      <attribute name="hasDependents" class="java.lang.Boolean" >false</attribute>
      <attribute name="InitialResponseThreshold" class="java.lang.Double" >0.2</attribute>
      <attribute name="FinalResponseThreshold"   class="java.lang.Double" >0.8</attribute>
    </attributes>
    <plan selected="yes">
      <activity type="home" x="759897.29075" y="5753954.22426" end_time="07:13:00" />
      <leg mode="car" />
      <activity type="shops" x="759294.96025" y="5730628.35413" end_time="08:03:00" />
      <leg mode="car" />
      <activity type="home" x="759897.29075" y="5753954.22426" end_time="11:10:00" />
      <leg mode="car" />
      <activity type="beach" x="786255.54497" y="5747965.81546" end_time="13:33:00" />
      <leg mode="car" />
      <activity type="home" x="759897.29075" y="5753954.22426" end_time="15:11:00" />
      <leg mode="car" />
      <activity type="shops" x="789974.17245" y="5752810.54643" end_time="16:29:00" />
      <leg mode="car" />
      <activity type="home" x="759897.29075" y="5753954.22426" />
    </plan>
  </person>

  <person id= "7" >
    <attributes>
      <attribute name="BDIAgentType" class="java.lang.String" >io.github.agentsoz.ees.agents.bushfire.ResidentPartTime</attribute>
      <attribute name="hasDependents" class="java.lang.Boolean" >false</attribute>
      <attribute name="InitialResponseThreshold" class="java.lang.Double" >0.4</attribute>
      <attribute name="FinalResponseThreshold"   class="java.lang.Double" >0.7</attribute>
    </attributes>
    <plan selected="yes">
      <activity type="home" x="788325.71422" y="5750146.95933" end_time="07:18:00" />
      <leg mode="car" />
      <activity type="other" x="789863.66729" y="5753170.47836" end_time="11:04:00" />
      <leg mode="car" />
      <activity type="work" x="789848.05453" y="5752795.44381" end_time="15:25:00" />
      <leg mode="car" />
      <activity type="shops" x="789902.15203" y="5752276.48654" end_time="17:38:00" />
      <leg mode="car" />
      <activity type="other" x="778546.67853" y="5744446.73313" end_time="18:01:00" />
      <leg mode="car" />
      <activity type="shops" x="790670.88255" y="5752085.50432" end_time="21:12:00" />
      <leg mode="car" />
      <activity type="home" x="788325.71422" y="5750146.95933" />
    </plan>
  </person>

  <person id= "8" >
    <attributes>
      <attribute name="BDIAgentType" class="java.lang.String" >io.github.agentsoz.ees.agents.bushfire.ResidentPartTime</attribute>
      <attribute name="hasDependents" class="java.lang.Boolean" >true</attribute>
      <attribute name="InitialResponseThreshold" class="java.lang.Double" >0.5</attribute>
      <attribute name="FinalResponseThreshold"   class="java.lang.Double" >0.5</attribute>
    </attributes>
    <plan selected="yes">
      <activity type="home" x="758838.77263" y="5730582.04375" end_time="06:20:00" />
      <leg mode="car" />
      <activity type="work" x="759310.02792" y="5730461.39643" end_time="15:48:00" />
      <leg mode="car" />
      <activity type="other" x="759074.12513" y="5730215.34091" end_time="16:17:00" />
      <leg mode="car" />
      <activity type="home" x="758838.77263" y="5730582.04375" end_time="18:01:00" />
      <leg mode="car" />
      <activity type="work" x="759163.59908" y="5730338.60707" end_time="23:53:00" />
      <leg mode="car" />
      <activity type="home" x="758838.77263" y="5730582.04375" />
    </plan>
  </person>

  <person id= "9" >
    <attributes>
      <attribute name="BDIAgentType" class="java.lang.String" >io.github.agentsoz.ees.agents.bushfire.ResidentPartTime</attribute>
      <attribute name="hasDependents" class="java.lang.Boolean" >false</attribute>
      <attribute name="FinalResponseThreshold"   class="java.lang.Double" >0.6</attribute>
      <attribute name="InitialResponseThreshold" class="java.lang.Double" >0.9</attribute>
    </attributes>
    <plan selected="yes">
      <activity type="home" x="783473.54056" y="5752883.62806" end_time="07:24:00" />
      <leg mode="car" />
      <activity type="other" x="789863.66729" y="5753170.47836" end_time="08:43:00" />
      <leg mode="car" />
      <activity type="shops" x="789902.15203" y="5752276.48654" end_time="11:11:00" />
      <leg mode="car" />
      <activity type="work" x="789848.05453" y="5752795.44381" end_time="22:54:00" />
      <leg mode="car" />
      <activity type="home" x="783473.54056" y="5752883.62806" />
    </plan>
  </person>

  <person id= "10" >
    <attributes>
      <attribute name="BDIAgentType" class="java.lang.String" >io.github.agentsoz.ees.agents.bushfire.VisitorRegular</attribute>
      <attribute name="hasDependents" class="java.lang.Boolean" >false</attribute>
      <attribute name="InitialResponseThreshold" class="java.lang.Double" >0.0</attribute>
      <attribute name="FinalResponseThreshold"   class="java.lang.Double" >0.0</attribute>
    </attributes>
    <plan selected="yes">
      <activity type="home" x="777528.01183" y="5744592.20828" end_time="13:11:00" />
      <leg mode="car" />
      <activity type="beach" x="778406.90316" y="5743587.79637" end_time="17:41:00" />
      <leg mode="car" />
      <activity type="home" x="777528.01183" y="5744592.20828" end_time="18:37:00" />
      <leg mode="car" />
      <activity type="shops" x="778482.57737" y="5744462.75843" end_time="20:33:00" />
      <leg mode="car" />
      <activity type="home" x="777528.01183" y="5744592.20828" />
    </plan>
  </person>

  <person id= "11" >
    <attributes>
      <attribute name="BDIAgentType" class="java.lang.String" >io.github.agentsoz.ees.agents.bushfire.VisitorRegular</attribute>
      <attribute name="hasDependents" class="java.lang.Boolean" >true</attribute>
      <attribute name="InitialResponseThreshold" class="java.lang.Double" >1.0</attribute>
      <attribute name="FinalResponseThreshold"   class="java.lang.Double" >1.0</attribute>
    </attributes>
    <plan selected="yes">
      <activity type="home" x="775483.2726" y="5780997.38201" end_time="06:58:00" />
      <leg mode="car" />
      <activity type="other" x="778507.88547" y="5744455.63954" end_time="09:05:00" />
      <leg mode="car" />
      <activity type="home" x="775483.2726" y="5780997.38201" end_time="10:34:00" />
      <leg mode="car" />
      <activity type="other" x="778358.96582" y="5743692.86289" end_time="12:43:00" />
      <leg mode="car" />
      <activity type="home" x="775483.2726" y="5780997.38201" end_time="14:02:00" />
      <leg mode="car" />
      <activity type="other" x="778948.04363" y="5744611.19874" end_time="16:22:00" />
      <leg mode="car" />
      <activity type="shops" x="792871.83966" y="5770473.28821" end_time="19:45:00" />
      <leg mode="car" />
      <activity type="home" x="775483.2726" y="5780997.38201" />
    </plan>
  </person>

  <person id= "12" >
    <attributes>
      <attribute name="BDIAgentType" class="java.lang.String" >io.github.agentsoz.ees.agents.bushfire.VisitorRegular</attribute>
      <attribute name="hasDependents" class="java.lang.Boolean" >false</attribute>
      <attribute name="InitialResponseThreshold" class="java.lang.Double" >0.4</attribute>
      <attribute name="FinalResponseThreshold"   class="java.lang.Double" >0.7</attribute>
    </attributes>
    <plan selected="yes">
      <activity type="home" x="775498.6485" y="5770984.14732" end_time="10:14:00" />
      <leg mode="car" />
      <activity type="shops" x="761647.31617" y="5762952.48569" end_time="13:30:00" />
      <leg mode="car" />
      <activity type="beach" x="788528.10978" y="5750214.98843" end_time="15:11:00" />
      <leg mode="car" />
      <activity type="other" x="777412.78017" y="5744008.09442" end_time="17:42:00" />
      <leg mode="car" />
      <activity type="shops" x="777902.25512" y="5762634.6724" end_time="18:37:00" />
      <leg mode="car" />
      <activity type="home" x="775498.6485" y="5770984.14732" end_time="21:01:00" />
      <leg mode="car" />
      <activity type="other" x="778358.96582" y="5743692.86289" end_time="23:57:00" />
      <leg mode="car" />
      <activity type="shops" x="777902.25512" y="5762634.6724" end_time="23:59:00" />
      <leg mode="car" />
      <activity type="home" x="775498.6485" y="5770984.14732" />
    </plan>
  </person>

  <person id= "13" >
    <attributes>
      <attribute name="BDIAgentType" class="java.lang.String" >io.github.agentsoz.ees.agents.bushfire.VisitorRegular</attribute>
      <attribute name="hasDependents" class="java.lang.Boolean" >false</attribute>
      <attribute name="InitialResponseThreshold" class="java.lang.Double" >0.3</attribute>
      <attribute name="FinalResponseThreshold"   class="java.lang.Double" >0.8</attribute>
    </attributes>
    <plan selected="yes">
      <activity type="home" x="778998.95182" y="5744092.75721" end_time="00:01:00" />
      <leg mode="car" />
      <activity type="other" x="778948.04363" y="5744611.19874" end_time="02:08:00" />
      <leg mode="car" />
      <activity type="home" x="778998.95182" y="5744092.75721" end_time="13:48:00" />
      <leg mode="car" />
      <activity type="shops" x="778482.57737" y="5744462.75843" end_time="14:33:00" />
      <leg mode="car" />
      <activity type="beach" x="778237.06886" y="5743964.79164" end_time="17:21:00" />
      <leg mode="car" />
      <activity type="home" x="778998.95182" y="5744092.75721" />
    </plan>
  </person>

  <person id= "14" >
    <attributes>
      <attribute name="BDIAgentType" class="java.lang.String" >io.github.agentsoz.ees.agents.bushfire.VisitorRegular</attribute>
      <attribute name="hasDependents" class="java.lang.Boolean" >true</attribute>
      <attribute name="InitialResponseThreshold" class="java.lang.Double" >0.1</attribute>
      <attribute name="FinalResponseThreshold"   class="java.lang.Double" >0.4</attribute>
    </attributes>
    <plan selected="yes">
      <activity type="home" x="746242.57298" y="5746659.62266" end_time="00:01:00" />
      <leg mode="car" />
      <activity type="other" x="777412.78017" y="5744008.09442" end_time="02:18:00" />
      <leg mode="car" />
      <activity type="home" x="746242.57298" y="5746659.62266" end_time="15:50:00" />
      <leg mode="car" />
      <activity type="beach" x="786985.47082" y="5748372.83646" end_time="17:40:00" />
      <leg mode="car" />
      <activity type="home" x="746242.57298" y="5746659.62266" end_time="19:21:00" />
      <leg mode="car" />
      <activity type="other" x="778507.88547" y="5744455.63954" end_time="21:09:00" />
      <leg mode="car" />
      <activity type="home" x="746242.57298" y="5746659.62266" />
    </plan>
  </person>

  <person id= "15" >
    <attributes>
      <attribute name="BDIAgentType" class="java.lang.String" >io.github.agentsoz.ees.agents.bushfire.VisitorOvernight</attribute>
      <attribute name="hasDependents" class="java.lang.Boolean" >false</attribute>
      <attribute name="InitialResponseThreshold" class="java.lang.Double" >0.6</attribute>
      <attribute name="FinalResponseThreshold"   class="java.lang.Double" >0.7</attribute>
    </attributes>
    <plan selected="yes">
      <activity type="home" x="771120.82582" y="5738818.00056" end_time="07:07:00" />
      <leg mode="car" />
      <activity type="other" x="777412.78017" y="5744008.09442" end_time="11:49:00" />
      <leg mode="car" />
      <activity type="beach" x="777498.11629" y="5741920.33946" end_time="17:54:00" />
      <leg mode="car" />
      <activity type="shops" x="770351.40111" y="5738001.92605" end_time="19:39:00" />
      <leg mode="car" />
      <activity type="home" x="771120.82582" y="5738818.00056" end_time="21:19:00" />
      <leg mode="car" />
      <activity type="other" x="778836.49665" y="5745094.30493" end_time="22:19:00" />
      <leg mode="car" />
      <activity type="home" x="771120.82582" y="5738818.00056" />
    </plan>
  </person>

  <person id= "16" >
    <attributes>
      <attribute name="BDIAgentType" class="java.lang.String" >io.github.agentsoz.ees.agents.bushfire.VisitorOvernight</attribute>
      <attribute name="hasDependents" class="java.lang.Boolean" >false</attribute>
      <attribute name="InitialResponseThreshold" class="java.lang.Double" >0.9</attribute>
      <attribute name="FinalResponseThreshold"   class="java.lang.Double" >0.9</attribute>
    </attributes>
    <plan selected="yes">
      <activity type="home" x="771120.82582" y="5738818.00056" end_time="04:38:00" />
      <leg mode="car" />
      <activity type="beach" x="786985.47082" y="5748372.83646" end_time="06:45:00" />
      <leg mode="car" />
      <activity type="other" x="778358.96582" y="5743692.86289" end_time="10:35:00" />
      <leg mode="car" />
      <activity type="beach" x="783893.9946" y="5745788.90364" end_time="14:12:00" />
      <leg mode="car" />
      <activity type="shops" x="770351.40111" y="5738001.92605" end_time="16:50:00" />
      <leg mode="car" />
      <activity type="other" x="778507.88547" y="5744455.63954" end_time="19:22:00" />
      <leg mode="car" />
      <activity type="shops" x="759317.42351" y="5729964.86105" end_time="20:34:00" />
      <leg mode="car" />
      <activity type="home" x="771120.82582" y="5738818.00056" />
    </plan>
  </person>

  <person id= "17" >
    <attributes>
      <attribute name="BDIAgentType" class="java.lang.String" >io.github.agentsoz.ees.agents.bushfire.VisitorOvernight</attribute>
      <attribute name="hasDependents" class="java.lang.Boolean" >true</attribute>
      <attribute name="InitialResponseThreshold" class="java.lang.Double" >0.2</attribute>
      <attribute name="FinalResponseThreshold"   class="java.lang.Double" >0.2</attribute>
    </attributes>
    <plan selected="yes">
      <activity type="home" x="756924.90574" y="5726253.79922" end_time="07:11:00" />
      <leg mode="car" />
      <activity type="other" x="767533.87321" y="5747333.10942" end_time="11:37:00" />
      <leg mode="car" />
      <activity type="shops" x="759317.42351" y="5729964.86105" end_time="12:39:00" />
      <leg mode="car" />
      <activity type="beach" x="753128.71399" y="5720791.13233" end_time="15:16:00" />
      <leg mode="car" />
      <activity type="home" x="756924.90574" y="5726253.79922" end_time="17:42:00" />
      <leg mode="car" />
      <activity type="shops" x="759294.96025" y="5730628.35413" end_time="20:05:00" />
      <leg mode="car" />
      <activity type="home" x="756924.90574" y="5726253.79922" />
    </plan>
  </person>

  <person id= "18" >
    <attributes>
      <attribute name="BDIAgentType" class="java.lang.String" >io.github.agentsoz.ees.agents.bushfire.VisitorOvernight</attribute>
      <attribute name="hasDependents" class="java.lang.Boolean" >false</attribute>
      <attribute name="InitialResponseThreshold" class="java.lang.Double" >0.4</attribute>
      <attribute name="FinalResponseThreshold"   class="java.lang.Double" >0.5</attribute>
    </attributes>
    <plan selected="yes">
      <activity type="home" x="777412.78017" y="5744008.09442" end_time="06:51:00" />
      <leg mode="car" />
      <activity type="other" x="778358.96582" y="5743692.86289" end_time="11:26:00" />
      <leg mode="car" />
      <activity type="beach" x="778237.06886" y="5743964.79164" end_time="16:31:00" />
      <leg mode="car" />
      <activity type="shops" x="778279.66613" y="5743500.15352" end_time="23:16:00" />
      <leg mode="car" />
      <activity type="home" x="777412.78017" y="5744008.09442" />
    </plan>
  </person>

  <person id= "19" >
    <attributes>
      <attribute name="BDIAgentType" class="java.lang.String" >io.github.agentsoz.ees.agents.bushfire.VisitorOvernight</attribute>
      <attribute name="hasDependents" class="java.lang.Boolean" >false</attribute>
      <attribute name="InitialResponseThreshold" class="java.lang.Double" >0.3</attribute>
      <attribute name="FinalResponseThreshold"   class="java.lang.Double" >0.7</attribute>
    </attributes>
    <plan selected="yes">
      <activity type="home" x="759175.87554" y="5731742.96741" end_time="06:22:00" />
      <leg mode="car" />
      <activity type="beach" x="759551.54671" y="5730602.07326" end_time="08:54:00" />
      <leg mode="car" />
      <activity type="shops" x="759294.96025" y="5730628.35413" end_time="11:41:00" />
      <leg mode="car" />
      <activity type="beach" x="759326.8826" y="5729839.13291" end_time="13:44:00" />
      <leg mode="car" />
      <activity type="shops" x="759294.96025" y="5730628.35413" end_time="14:24:00" />
      <leg mode="car" />
      <activity type="beach" x="759551.54671" y="5730602.07326" end_time="16:13:00" />
      <leg mode="car" />
      <activity type="other" x="777412.78017" y="5744008.09442" end_time="19:08:00" />
      <leg mode="car" />
      <activity type="shops" x="759294.96025" y="5730628.35413" end_time="21:33:00" />
      <leg mode="car" />
      <activity type="home" x="759175.87554" y="5731742.96741" />
    </plan>
  </person>

  <person id= "20" >
    <attributes>
      <attribute name="BDIAgentType" class="java.lang.String" >io.github.agentsoz.ees.agents.bushfire.VisitorDaytime</attribute>
      <attribute name="hasDependents" class="java.lang.Boolean" >true</attribute>
      <attribute name="InitialResponseThreshold" class="java.lang.Double" >0.5</attribute>
      <attribute name="FinalResponseThreshold"   class="java.lang.Double" >0.9</attribute>
    </attributes>
    <plan selected="yes">
      <activity type="home" x="725868.5478" y="5753291.5198" end_time="05:29:00" />
      <leg mode="car" />
      <activity type="other" x="778507.88547" y="5744455.63954" end_time="10:36:00" />
      <leg mode="car" />
      <activity type="shops" x="732598.98147" y="5756278.36455" end_time="13:38:00" />
      <leg mode="car" />
      <activity type="other" x="767533.87321" y="5747333.10942" end_time="15:09:00" />
      <leg mode="car" />
      <activity type="beach" x="778237.06886" y="5743964.79164" end_time="16:22:00" />
      <leg mode="car" />
      <activity type="shops" x="732598.98147" y="5756278.36455" end_time="21:37:00" />
      <leg mode="car" />
      <activity type="home" x="725868.5478" y="5753291.5198" />
    </plan>
  </person>

  <person id= "21" >
    <attributes>
      <attribute name="BDIAgentType" class="java.lang.String" >io.github.agentsoz.ees.agents.bushfire.VisitorDaytime</attribute>
      <attribute name="hasDependents" class="java.lang.Boolean" >false</attribute>
      <attribute name="InitialResponseThreshold" class="java.lang.Double" >0.2</attribute>
      <attribute name="FinalResponseThreshold"   class="java.lang.Double" >0.3</attribute>
    </attributes>
    <plan selected="yes">
      <activity type="home" x="793807.138" y="5772517.067" end_time="07:38:00" />
      <leg mode="car" />
      <activity type="other" x="778948.04363" y="5744611.19874" end_time="10:37:00" />
      <leg mode="car" />
      <activity type="shops" x="792871.83966" y="5770473.28821" end_time="12:02:00" />
      <leg mode="car" />
      <activity type="beach" x="794920.60169" y="5772690.71159" end_time="17:58:00" />
      <leg mode="car" />
      <activity type="other" x="778836.49665" y="5745094.30493" end_time="18:34:00" />
      <leg mode="car" />
      <activity type="home" x="793807.138" y="5772517.067" end_time="20:26:00" />
      <leg mode="car" />
      <activity type="beach" x="794920.60169" y="5772690.71159" end_time="22:54:00" />
      <leg mode="car" />
      <activity type="home" x="793807.138" y="5772517.067" />
    </plan>
  </person>

  <person id= "22" >
    <attributes>
      <attribute name="BDIAgentType" class="java.lang.String" >io.github.agentsoz.ees.agents.bushfire.VisitorDaytime</attribute>
      <attribute name="hasDependents" class="java.lang.Boolean" >false</attribute>
      <attribute name="InitialResponseThreshold" class="java.lang.Double" >0.4</attribute>
      <attribute name="FinalResponseThreshold"   class="java.lang.Double" >0.4</attribute>
    </attributes>
    <plan selected="yes">
      <activity type="home" x="725868.5478" y="5753291.5198" end_time="07:37:00" />
      <leg mode="car" />
      <activity type="other" x="777412.78017" y="5744008.09442" end_time="09:46:00" />
      <leg mode="car" />
      <activity type="shops" x="732598.98147" y="5756278.36455" end_time="11:13:00" />
      <leg mode="car" />
      <activity type="beach" x="794242.078" y="5754370.29551" end_time="16:13:00" />
      <leg mode="car" />
      <activity type="home" x="725868.5478" y="5753291.5198" end_time="18:30:00" />
      <leg mode="car" />
      <activity type="shops" x="778433.82508" y="5744429.17115" end_time="21:53:00" />
      <leg mode="car" />
      <activity type="other" x="767533.87321" y="5747333.10942" end_time="22:18:00" />
      <leg mode="car" />
      <activity type="home" x="725868.5478" y="5753291.5198" />
    </plan>
  </person>

  <person id= "23" >
    <attributes>
      <attribute name="BDIAgentType" class="java.lang.String" >io.github.agentsoz.ees.agents.bushfire.VisitorDaytime</attribute>
      <attribute name="hasDependents" class="java.lang.Boolean" >true</attribute>
      <attribute name="InitialResponseThreshold" class="java.lang.Double" >0.6</attribute>
      <attribute name="FinalResponseThreshold"   class="java.lang.Double" >1.0</attribute>
    </attributes>
    <plan selected="yes">
      <activity type="home" x="793807.138" y="5772517.067" end_time="08:55:00" />
      <leg mode="car" />
      <activity type="other" x="778948.04363" y="5744611.19874" end_time="10:58:00" />
      <leg mode="car" />
      <activity type="beach" x="794920.60169" y="5772690.71159" end_time="13:38:00" />
      <leg mode="car" />
      <activity type="other" x="777412.78017" y="5744008.09442" end_time="15:47:00" />
      <leg mode="car" />
      <activity type="beach" x="794920.60169" y="5772690.71159" end_time="16:35:00" />
      <leg mode="car" />
      <activity type="other" x="778948.04363" y="5744611.19874" end_time="19:05:00" />
      <leg mode="car" />
      <activity type="shops" x="792871.83966" y="5770473.28821" end_time="20:42:00" />
      <leg mode="car" />
      <activity type="home" x="793807.138" y="5772517.067" />
    </plan>
  </person>

  <person id= "24" >