<?xml version="1.0" encoding="utf-8"?>
<!DOCTYPE population SYSTEM "http://www.matsim.org/files/dtd/population_v6.dtd">

<population>

	<!-- ====================================================================== -->

	<person id="0">
		<attributes>
			<attribute name="BDIAgentType" class="java.lang.String" >io.github.agentsoz.ees.agents.bushfire.Resident</attribute>
			<attribute name="InitialResponseThreshold" class="java.lang.Double" >0.0</attribute>
			<attribute name="FinalResponseThreshold"   class="java.lang.Double" >0.0</attribute>
		</attributes>
		<plan selected="yes">
			<activity type="home" x="251578.98785484213" y="5891410.605859456" end_time="06:00:00" >
			</activity>
			<leg mode="car">
			</leg>
			<activity type="home" x="251578.98785484213" y="5891410.605859456" >
			</activity>
		</plan>

	</person>

	<!-- ====================================================================== -->

	<person id="1">
		<attributes>
			<attribute name="BDIAgentType" class="java.lang.String" >io.github.agentsoz.ees.agents.bushfire.Resident</attribute>
			<attribute name="InitialResponseThreshold" class="java.lang.Double" >0.0</attribute>
			<attribute name="FinalResponseThreshold"   class="java.lang.Double" >0.0</attribute>
		</attributes>
		<plan selected="yes">
			<activity type="home" x="251612.83742180976" y="5891598.840253427" end_time="06:00:00" >
			</activity>
			<leg mode="car">
			</leg>
			<activity type="home" x="251612.83742180976" y="5891598.840253427" >
			</activity>
		</plan>

	</person>

	<!-- ====================================================================== -->

	<person id="2">
		<attributes>
			<attribute name="BDIAgentType" class="java.lang.String" >io.github.agentsoz.ees.agents.bushfire.Resident</attribute>
			<attribute name="InitialResponseThreshold" class="java.lang.Double" >0.0</attribute>
			<attribute name="FinalResponseThreshold"   class="java.lang.Double" >0.0</attribute>
		</attributes>
		<plan selected="yes">
			<activity type="home" x="251506.873792708" y="5891433.816627166" end_time="06:00:00" >
			</activity>
			<leg mode="car">
			</leg>
			<activity type="home" x="251506.873792708" y="5891433.816627166" >
			</activity>
		</plan>

	</person>

	<!-- ====================================================================== -->

	<person id="3">
		<attributes>
			<attribute name="BDIAgentType" class="java.lang.String" >io.github.agentsoz.ees.agents.bushfire.Resident</attribute>
			<attribute name="InitialResponseThreshold" class="java.lang.Double" >0.0</attribute>
			<attribute name="FinalResponseThreshold"   class="java.lang.Double" >0.0</attribute>
		</attributes>
		<plan selected="yes">
			<activity type="home" x="251472.17352736174" y="5891382.224196013" end_time="06:00:00" >
			</activity>
			<leg mode="car">
			</leg>
			<activity type="home" x="251472.17352736174" y="5891382.224196013" >
			</activity>
		</plan>

	</person>

	<!-- ====================================================================== -->

	<person id="4">
		<attributes>
			<attribute name="BDIAgentType" class="java.lang.String" >io.github.agentsoz.ees.agents.bushfire.Resident</attribute>
			<attribute name="InitialResponseThreshold" class="java.lang.Double" >0.0</attribute>
			<attribute name="FinalResponseThreshold"   class="java.lang.Double" >0.0</attribute>
		</attributes>
		<plan selected="yes">
			<activity type="home" x="251494.2839415249" y="5891348.780991904" end_time="06:00:00" >
			</activity>
			<leg mode="car">
			</leg>
			<activity type="home" x="251494.2839415249" y="5891348.780991904" >
			</activity>
		</plan>

	</person>

	<!-- ====================================================================== -->

	<person id="5">
		<attributes>
			<attribute name="BDIAgentType" class="java.lang.String" >io.github.agentsoz.ees.agents.bushfire.Resident</attribute>
			<attribute name="InitialResponseThreshold" class="java.lang.Double" >0.0</attribute>
			<attribute name="FinalResponseThreshold"   class="java.lang.Double" >0.0</attribute>
		</attributes>
		<plan selected="yes">
			<activity type="home" x="251662.2872657668" y="5891737.096166822" end_time="06:00:00" >
			</activity>
			<leg mode="car">
			</leg>
			<activity type="home" x="251662.2872657668" y="5891737.096166822" >
			</activity>
		</plan>

	</person>

	<!-- ====================================================================== -->

	<person id="6">
		<attributes>
			<attribute name="BDIAgentType" class="java.lang.String" >io.github.agentsoz.ees.agents.bushfire.Resident</attribute>
			<attribute name="InitialResponseThreshold" class="java.lang.Double" >0.0</attribute>
			<attribute name="FinalResponseThreshold"   class="java.lang.Double" >0.0</attribute>
		</attributes>
		<plan selected="yes">
			<activity type="home" x="251442.83599191683" y="5891801.224765896" end_time="06:00:00" >
			</activity>
			<leg mode="car">
			</leg>
			<activity type="home" x="251442.83599191683" y="5891801.224765896" >
			</activity>
		</plan>

	</person>

	<!-- ====================================================================== -->

	<person id="7">
		<attributes>
			<attribute name="BDIAgentType" class="java.lang.String" >io.github.agentsoz.ees.agents.bushfire.Resident</attribute>
			<attribute name="InitialResponseThreshold" class="java.lang.Double" >0.0</attribute>
			<attribute name="FinalResponseThreshold"   class="java.lang.Double" >0.0</attribute>
		</attributes>
		<plan selected="yes">
			<activity type="home" x="251537.02225919647" y="5891393.597262668" end_time="06:00:00" >
			</activity>
			<leg mode="car">
			</leg>
			<activity type="home" x="251537.02225919647" y="5891393.597262668" >
			</activity>
		</plan>

	</person>

	<!-- ====================================================================== -->

	<person id="8">
		<attributes>
			<attribute name="BDIAgentType" class="java.lang.String" >io.github.agentsoz.ees.agents.bushfire.Resident</attribute>
			<attribute name="InitialResponseThreshold" class="java.lang.Double" >0.0</attribute>
			<attribute name="FinalResponseThreshold"   class="java.lang.Double" >0.0</attribute>
		</attributes>
		<plan selected="yes">
			<activity type="home" x="251526.15739996757" y="5890985.2202374395" end_time="06:00:00" >
			</activity>
			<leg mode="car">
			</leg>
			<activity type="home" x="251526.15739996757" y="5890985.2202374395" >
			</activity>
		</plan>

	</person>

	<!-- ====================================================================== -->

	<person id="9">
		<attributes>
			<attribute name="BDIAgentType" class="java.lang.String" >io.github.agentsoz.ees.agents.bushfire.Resident</attribute>
			<attribute name="InitialResponseThreshold" class="java.lang.Double" >0.0</attribute>
			<attribute name="FinalResponseThreshold"   class="java.lang.Double" >0.0</attribute>
		</attributes>
		<plan selected="yes">
			<activity type="home" x="251646.20732097313" y="5891449.0281083835" end_time="06:00:00" >
			</activity>
			<leg mode="car">
			</leg>
			<activity type="home" x="251646.20732097313" y="5891449.0281083835" >
			</activity>
		</plan>

	</person>

	<!-- ====================================================================== -->

	<person id="10">
		<attributes>
			<attribute name="BDIAgentType" class="java.lang.String" >io.github.agentsoz.ees.agents.bushfire.Resident</attribute>
			<attribute name="InitialResponseThreshold" class="java.lang.Double" >0.0</attribute>
			<attribute name="FinalResponseThreshold"   class="java.lang.Double" >0.0</attribute>
		</attributes>
		<plan selected="yes">
			<activity type="home" x="251576.74280881413" y="5891832.441953285" end_time="06:00:00" >
			</activity>
			<leg mode="car">
			</leg>
			<activity type="home" x="251576.74280881413" y="5891832.441953285" >
			</activity>
		</plan>

	</person>

	<!-- ====================================================================== -->

	<person id="11">
		<attributes>
			<attribute name="BDIAgentType" class="java.lang.String" >io.github.agentsoz.ees.agents.bushfire.Resident</attribute>
			<attribute name="InitialResponseThreshold" class="java.lang.Double" >0.0</attribute>
			<attribute name="FinalResponseThreshold"   class="java.lang.Double" >0.0</attribute>
		</attributes>
		<plan selected="yes">
			<activity type="home" x="251496.53269907463" y="5891410.335827524" end_time="06:00:00" >
			</activity>
			<leg mode="car">
			</leg>
			<activity type="home" x="251496.53269907463" y="5891410.335827524" >
			</activity>
		</plan>

	</person>

	<!-- ====================================================================== -->

	<person id="12">
		<attributes>
			<attribute name="BDIAgentType" class="java.lang.String" >io.github.agentsoz.ees.agents.bushfire.Resident</attribute>
			<attribute name="InitialResponseThreshold" class="java.lang.Double" >0.0</attribute>
			<attribute name="FinalResponseThreshold"   class="java.lang.Double" >0.0</attribute>
		</attributes>
		<plan selected="yes">
			<activity type="home" x="251674.47129506827" y="5890967.284222891" end_time="06:00:00" >
			</activity>
			<leg mode="car">
			</leg>
			<activity type="home" x="251674.47129506827" y="5890967.284222891" >
			</activity>
		</plan>

	</person>

	<!-- ====================================================================== -->

	<person id="13">
		<attributes>
			<attribute name="BDIAgentType" class="java.lang.String" >io.github.agentsoz.ees.agents.bushfire.Resident</attribute>
			<attribute name="InitialResponseThreshold" class="java.lang.Double" >0.0</attribute>
			<attribute name="FinalResponseThreshold"   class="java.lang.Double" >0.0</attribute>
		</attributes>
		<plan selected="yes">
			<activity type="home" x="251438.59176717087" y="5891286.084604485" end_time="06:00:00" >
			</activity>
			<leg mode="car">
			</leg>
			<activity type="home" x="251438.59176717087" y="5891286.084604485" >
			</activity>
		</plan>

	</person>

	<!-- ====================================================================== -->

	<person id="14">
		<attributes>
			<attribute name="BDIAgentType" class="java.lang.String" >io.github.agentsoz.ees.agents.bushfire.Resident</attribute>
			<attribute name="InitialResponseThreshold" class="java.lang.Double" >0.0</attribute>
			<attribute name="FinalResponseThreshold"   class="java.lang.Double" >0.0</attribute>
		</attributes>
		<plan selected="yes">
			<activity type="home" x="251560.10686795547" y="5891885.212337714" end_time="06:00:00" >
			</activity>
			<leg mode="car">
			</leg>
			<activity type="home" x="251560.10686795547" y="5891885.212337714" >
			</activity>
		</plan>

	</person>

	<!-- ====================================================================== -->

	<person id="15">
		<attributes>
			<attribute name="BDIAgentType" class="java.lang.String" >io.github.agentsoz.ees.agents.bushfire.Resident</attribute>
			<attribute name="InitialResponseThreshold" class="java.lang.Double" >0.0</attribute>
			<attribute name="FinalResponseThreshold"   class="java.lang.Double" >0.0</attribute>
		</attributes>
		<plan selected="yes">
			<activity type="home" x="251621.27198869863" y="5891316.688825875" end_time="06:00:00" >
			</activity>
			<leg mode="car">
			</leg>
			<activity type="home" x="251621.27198869863" y="5891316.688825875" >
			</activity>
		</plan>

	</person>

	<!-- ====================================================================== -->

	<person id="16">
		<attributes>
			<attribute name="BDIAgentType" class="java.lang.String" >io.github.agentsoz.ees.agents.bushfire.Resident</attribute>
			<attribute name="InitialResponseThreshold" class="java.lang.Double" >0.0</attribute>
			<attribute name="FinalResponseThreshold"   class="java.lang.Double" >0.0</attribute>
		</attributes>
		<plan selected="yes">
			<activity type="home" x="251600.90315542163" y="5891062.942258863" end_time="06:00:00" >
			</activity>
			<leg mode="car">
			</leg>
			<activity type="home" x="251600.90315542163" y="5891062.942258863" >
			</activity>
		</plan>

	</person>

	<!-- ====================================================================== -->

	<person id="17">
		<attributes>
			<attribute name="BDIAgentType" class="java.lang.String" >io.github.agentsoz.ees.agents.bushfire.Resident</attribute>
			<attribute name="InitialResponseThreshold" class="java.lang.Double" >0.0</attribute>
			<attribute name="FinalResponseThreshold"   class="java.lang.Double" >0.0</attribute>
		</attributes>
		<plan selected="yes">
			<activity type="home" x="251507.88452336664" y="5891828.2918961635" end_time="06:00:00" >
			</activity>
			<leg mode="car">
			</leg>
			<activity type="home" x="251507.88452336664" y="5891828.2918961635" >
			</activity>
		</plan>

	</person>

	<!-- ====================================================================== -->

	<person id="18">
		<attributes>
			<attribute name="BDIAgentType" class="java.lang.String" >io.github.agentsoz.ees.agents.bushfire.Resident</attribute>
			<attribute name="InitialResponseThreshold" class="java.lang.Double" >0.0</attribute>
			<attribute name="FinalResponseThreshold"   class="java.lang.Double" >0.0</attribute>
		</attributes>
		<plan selected="yes">
			<activity type="home" x="251463.94198502955" y="5891629.42502219" end_time="06:00:00" >
			</activity>
			<leg mode="car">
			</leg>
			<activity type="home" x="251463.94198502955" y="5891629.42502219" >
			</activity>
		</plan>

	</person>

	<!-- ====================================================================== -->

	<person id="19">
		<attributes>
			<attribute name="BDIAgentType" class="java.lang.String" >io.github.agentsoz.ees.agents.bushfire.Resident</attribute>
			<attribute name="InitialResponseThreshold" class="java.lang.Double" >0.0</attribute>
			<attribute name="FinalResponseThreshold"   class="java.lang.Double" >0.0</attribute>
		</attributes>
		<plan selected="yes">
			<activity type="home" x="251588.01751624563" y="5891570.19727556" end_time="06:00:00" >
			</activity>
			<leg mode="car">
			</leg>
			<activity type="home" x="251588.01751624563" y="5891570.19727556" >
			</activity>
		</plan>

	</person>

	<!-- ====================================================================== -->

	<person id="20">
		<attributes>
			<attribute name="BDIAgentType" class="java.lang.String" >io.github.agentsoz.ees.agents.bushfire.Resident</attribute>
			<attribute name="InitialResponseThreshold" class="java.lang.Double" >0.0</attribute>
			<attribute name="FinalResponseThreshold"   class="java.lang.Double" >0.0</attribute>
		</attributes>
		<plan selected="yes">
			<activity type="home" x="251655.3958959852" y="5891156.961974445" end_time="06:00:00" >
			</activity>
			<leg mode="car">
			</leg>
			<activity type="home" x="251655.3958959852" y="5891156.961974445" >
			</activity>
		</plan>

	</person>

	<!-- ====================================================================== -->

	<person id="21">
		<attributes>
			<attribute name="BDIAgentType" class="java.lang.String" >io.github.agentsoz.ees.agents.bushfire.Resident</attribute>
			<attribute name="InitialResponseThreshold" class="java.lang.Double" >0.0</attribute>
			<attribute name="FinalResponseThreshold"   class="java.lang.Double" >0.0</attribute>
		</attributes>
		<plan selected="yes">
			<activity type="home" x="251675.8014883402" y="5891338.42526361" end_time="06:00:00" >
			</activity>
			<leg mode="car">
			</leg>
			<activity type="home" x="251675.8014883402" y="5891338.42526361" >
			</activity>
		</plan>

	</person>

	<!-- ====================================================================== -->

	<person id="22">
		<attributes>
			<attribute name="BDIAgentType" class="java.lang.String" >io.github.agentsoz.ees.agents.bushfire.Resident</attribute>
			<attribute name="InitialResponseThreshold" class="java.lang.Double" >0.0</attribute>
			<attribute name="FinalResponseThreshold"   class="java.lang.Double" >0.0</attribute>
		</attributes>
		<plan selected="yes">
			<activity type="home" x="251425.2838390243" y="5891475.8957296405" end_time="06:00:00" >
			</activity>
			<leg mode="car">
			</leg>
			<activity type="home" x="251425.2838390243" y="5891475.8957296405" >
			</activity>
		</plan>

	</person>

	<!-- ====================================================================== -->

	<person id="23">
		<attributes>
			<attribute name="BDIAgentType" class="java.lang.String" >io.github.agentsoz.ees.agents.bushfire.Resident</attribute>
			<attribute name="InitialResponseThreshold" class="java.lang.Double" >0.0</attribute>
			<attribute name="FinalResponseThreshold"   class="java.lang.Double" >0.0</attribute>
		</attributes>
		<plan selected="yes">
			<activity type="home" x="251625.77045854394" y="5891435.7676559845" end_time="06:00:00" >
			</activity>
			<leg mode="car">
			</leg>
			<activity type="home" x="251625.77045854394" y="5891435.7676559845" >
			</activity>
		</plan>

	</person>

	<!-- ====================================================================== -->

	<person id="24">
		<attributes>
			<attribute name="BDIAgentType" class="java.lang.String" >io.github.agentsoz.ees.agents.bushfire.Resident</attribute>
			<attribute name="InitialResponseThreshold" class="java.lang.Double" >0.0</attribute>
			<attribute name="FinalResponseThreshold"   class="java.lang.Double" >0.0</attribute>
		</attributes>
		<plan selected="yes">
			<activity type="home" x="251539.6202348073" y="5891238.306929775" end_time="06:00:00" >
			</activity>
			<leg mode="car">
			</leg>
			<activity type="home" x="251539.6202348073" y="5891238.306929775" >
			</activity>
		</plan>

	</person>

	<!-- ====================================================================== -->

	<person id="25">
		<attributes>
			<attribute name="BDIAgentType" class="java.lang.String" >io.github.agentsoz.ees.agents.bushfire.Resident</attribute>
			<attribute name="InitialResponseThreshold" class="java.lang.Double" >0.0</attribute>
			<attribute name="FinalResponseThreshold"   class="java.lang.Double" >0.0</attribute>
		</attributes>
		<plan selected="yes">
			<activity type="home" x="251482.4348092802" y="5891302.552073209" end_time="06:00:00" >
			</activity>
			<leg mode="car">
			</leg>
			<activity type="home" x="251482.4348092802" y="5891302.552073209" >
			</activity>
		</plan>

	</person>

	<!-- ====================================================================== -->

	<person id="26">
		<attributes>
			<attribute name="BDIAgentType" class="java.lang.String" >io.github.agentsoz.ees.agents.bushfire.Resident</attribute>
			<attribute name="InitialResponseThreshold" class="java.lang.Double" >0.0</attribute>
			<attribute name="FinalResponseThreshold"   class="java.lang.Double" >0.0</attribute>
		</attributes>
		<plan selected="yes">
			<activity type="home" x="251512.80990041478" y="5891133.7793890685" end_time="06:00:00" >
			</activity>
			<leg mode="car">
			</leg>
			<activity type="home" x="251512.80990041478" y="5891133.7793890685" >
			</activity>
		</plan>

	</person>

	<!-- ====================================================================== -->

	<person id="27">
		<attributes>
			<attribute name="BDIAgentType" class="java.lang.String" >io.github.agentsoz.ees.agents.bushfire.Resident</attribute>
			<attribute name="InitialResponseThreshold" class="java.lang.Double" >0.0</attribute>
			<attribute name="FinalResponseThreshold"   class="java.lang.Double" >0.0</attribute>
		</attributes>
		<plan selected="yes">
			<activity type="home" x="251458.51404935351" y="5891680.137925705" end_time="06:00:00" >
			</activity>
			<leg mode="car">
			</leg>
			<activity type="home" x="251458.51404935351" y="5891680.137925705" >
			</activity>
		</plan>

	</person>

	<!-- ====================================================================== -->

	<person id="28">
		<attributes>
			<attribute name="BDIAgentType" class="java.lang.String" >io.github.agentsoz.ees.agents.bushfire.Resident</attribute>
			<attribute name="InitialResponseThreshold" class="java.lang.Double" >0.0</attribute>
			<attribute name="FinalResponseThreshold"   class="java.lang.Double" >0.0</attribute>
		</attributes>
		<plan selected="yes">
			<activity type="home" x="251624.83054830885" y="5891291.353312409" end_time="06:00:00" >
			</activity>
			<leg mode="car">
			</leg>
			<activity type="home" x="251624.83054830885" y="5891291.353312409" >
			</activity>
		</plan>

	</person>

	<!-- ====================================================================== -->

	<person id="29">
		<attributes>
			<attribute name="BDIAgentType" class="java.lang.String" >io.github.agentsoz.ees.agents.bushfire.Resident</attribute>
			<attribute name="InitialResponseThreshold" class="java.lang.Double" >0.0</attribute>
			<attribute name="FinalResponseThreshold"   class="java.lang.Double" >0.0</attribute>
		</attributes>
		<plan selected="yes">
			<activity type="home" x="251484.77760930496" y="5891531.169614702" end_time="06:00:00" >
			</activity>
			<leg mode="car">
			</leg>
			<activity type="home" x="251484.77760930496" y="5891531.169614702" >
			</activity>
		</plan>

	</person>

	<!-- ====================================================================== -->

	<person id="30">
		<attributes>
			<attribute name="BDIAgentType" class="java.lang.String" >io.github.agentsoz.ees.agents.bushfire.Resident</attribute>
			<attribute name="InitialResponseThreshold" class="java.lang.Double" >0.0</attribute>
			<attribute name="FinalResponseThreshold"   class="java.lang.Double" >0.0</attribute>
		</attributes>
		<plan selected="yes">
			<activity type="home" x="251459.81144018788" y="5891045.958162367" end_time="06:00:00" >
			</activity>
			<leg mode="car">
			</leg>
			<activity type="home" x="251459.81144018788" y="5891045.958162367" >
			</activity>
		</plan>

	</person>

	<!-- ====================================================================== -->

	<person id="31">
		<attributes>
			<attribute name="BDIAgentType" class="java.lang.String" >io.github.agentsoz.ees.agents.bushfire.Resident</attribute>
			<attribute name="InitialResponseThreshold" class="java.lang.Double" >0.0</attribute>
			<attribute name="FinalResponseThreshold"   class="java.lang.Double" >0.0</attribute>
		</attributes>
		<plan selected="yes">
			<activity type="home" x="251611.09114455362" y="5891227.031462528" end_time="06:00:00" >
			</activity>
			<leg mode="car">
			</leg>
			<activity type="home" x="251611.09114455362" y="5891227.031462528" >
			</activity>
		</plan>

	</person>

	<!-- ====================================================================== -->

	<person id="32">
		<attributes>
			<attribute name="BDIAgentType" class="java.lang.String" >io.github.agentsoz.ees.agents.bushfire.Resident</attribute>
			<attribute name="InitialResponseThreshold" class="java.lang.Double" >0.0</attribute>
			<attribute name="FinalResponseThreshold"   class="java.lang.Double" >0.0</attribute>
		</attributes>
		<plan selected="yes">
			<activity type="home" x="251535.93992517795" y="5891932.394519374" end_time="06:00:00" >
			</activity>
			<leg mode="car">
			</leg>
			<activity type="home" x="251535.93992517795" y="5891932.394519374" >
			</activity>
		</plan>

	</person>

	<!-- ====================================================================== -->

	<person id="33">
		<attributes>
			<attribute name="BDIAgentType" class="java.lang.String" >io.github.agentsoz.ees.agents.bushfire.Resident</attribute>
			<attribute name="InitialResponseThreshold" class="java.lang.Double" >0.0</attribute>
			<attribute name="FinalResponseThreshold"   class="java.lang.Double" >0.0</attribute>
		</attributes>
		<plan selected="yes">
			<activity type="home" x="251503.25836081224" y="5891248.229011859" end_time="06:00:00" >
			</activity>
			<leg mode="car">
			</leg>
			<activity type="home" x="251503.25836081224" y="5891248.229011859" >
			</activity>
		</plan>

	</person>

	<!-- ====================================================================== -->

	<person id="34">
		<attributes>
			<attribute name="BDIAgentType" class="java.lang.String" >io.github.agentsoz.ees.agents.bushfire.Resident</attribute>
			<attribute name="InitialResponseThreshold" class="java.lang.Double" >0.0</attribute>
			<attribute name="FinalResponseThreshold"   class="java.lang.Double" >0.0</attribute>
		</attributes>
		<plan selected="yes">
			<activity type="home" x="251467.64070809213" y="5891574.835154008" end_time="06:00:00" >
			</activity>
			<leg mode="car">
			</leg>
			<activity type="home" x="251467.64070809213" y="5891574.835154008" >
			</activity>
		</plan>

	</person>

	<!-- ====================================================================== -->

	<person id="35">
		<attributes>
			<attribute name="BDIAgentType" class="java.lang.String" >io.github.agentsoz.ees.agents.bushfire.Resident</attribute>
			<attribute name="InitialResponseThreshold" class="java.lang.Double" >0.0</attribute>
			<attribute name="FinalResponseThreshold"   class="java.lang.Double" >0.0</attribute>
		</attributes>
		<plan selected="yes">
			<activity type="home" x="251571.72168670836" y="5891414.738989155" end_time="06:00:00" >
			</activity>
			<leg mode="car">
			</leg>
			<activity type="home" x="251571.72168670836" y="5891414.738989155" >
			</activity>
		</plan>

	</person>

	<!-- ====================================================================== -->

	<person id="36">
		<attributes>
			<attribute name="BDIAgentType" class="java.lang.String" >io.github.agentsoz.ees.agents.bushfire.Resident</attribute>
			<attribute name="InitialResponseThreshold" class="java.lang.Double" >0.0</attribute>
			<attribute name="FinalResponseThreshold"   class="java.lang.Double" >0.0</attribute>
		</attributes>
		<plan selected="yes">
			<activity type="home" x="251632.93711244344" y="5891061.799527586" end_time="06:00:00" >
			</activity>
			<leg mode="car">
			</leg>
			<activity type="home" x="251632.93711244344" y="5891061.799527586" >
			</activity>
		</plan>

	</person>

	<!-- ====================================================================== -->

	<person id="37">
		<attributes>
			<attribute name="BDIAgentType" class="java.lang.String" >io.github.agentsoz.ees.agents.bushfire.Resident</attribute>
			<attribute name="InitialResponseThreshold" class="java.lang.Double" >0.0</attribute>
			<attribute name="FinalResponseThreshold"   class="java.lang.Double" >0.0</attribute>
		</attributes>
		<plan selected="yes">
			<activity type="home" x="251498.10970788274" y="5891106.797874454" end_time="06:00:00" >
			</activity>
			<leg mode="car">
			</leg>
			<activity type="home" x="251498.10970788274" y="5891106.797874454" >
			</activity>
		</plan>

	</person>

	<!-- ====================================================================== -->

	<person id="38">
		<attributes>
			<attribute name="BDIAgentType" class="java.lang.String" >io.github.agentsoz.ees.agents.bushfire.Resident</attribute>
			<attribute name="InitialResponseThreshold" class="java.lang.Double" >0.0</attribute>
			<attribute name="FinalResponseThreshold"   class="java.lang.Double" >0.0</attribute>
		</attributes>
		<plan selected="yes">
			<activity type="home" x="251429.3824551534" y="5891973.810298442" end_time="06:00:00" >
			</activity>
			<leg mode="car">
			</leg>
			<activity type="home" x="251429.3824551534" y="5891973.810298442" >
			</activity>
		</plan>

	</person>

	<!-- ====================================================================== -->

	<person id="39">
		<attributes>
			<attribute name="BDIAgentType" class="java.lang.String" >io.github.agentsoz.ees.agents.bushfire.Resident</attribute>
			<attribute name="InitialResponseThreshold" class="java.lang.Double" >0.0</attribute>
			<attribute name="FinalResponseThreshold"   class="java.lang.Double" >0.0</attribute>
		</attributes>
		<plan selected="yes">
			<activity type="home" x="251676.0381566147" y="5891520.030866302" end_time="06:00:00" >
			</activity>
			<leg mode="car">
			</leg>
			<activity type="home" x="251676.0381566147" y="5891520.030866302" >
			</activity>
		</plan>

	</person>

	<!-- ====================================================================== -->

	<person id="40">
		<attributes>
			<attribute name="BDIAgentType" class="java.lang.String" >io.github.agentsoz.ees.agents.bushfire.Resident</attribute>
			<attribute name="InitialResponseThreshold" class="java.lang.Double" >0.0</attribute>
			<attribute name="FinalResponseThreshold"   class="java.lang.Double" >0.0</attribute>
		</attributes>
		<plan selected="yes">
			<activity type="home" x="251595.85283829394" y="5891698.986170032" end_time="06:00:00" >
			</activity>
			<leg mode="car">
			</leg>
			<activity type="home" x="251595.85283829394" y="5891698.986170032" >
			</activity>
		</plan>

	</person>

	<!-- ====================================================================== -->

	<person id="41">
		<attributes>
			<attribute name="BDIAgentType" class="java.lang.String" >io.github.agentsoz.ees.agents.bushfire.Resident</attribute>
			<attribute name="InitialResponseThreshold" class="java.lang.Double" >0.0</attribute>
			<attribute name="FinalResponseThreshold"   class="java.lang.Double" >0.0</attribute>
		</attributes>
		<plan selected="yes">
			<activity type="home" x="251495.77912764362" y="5891865.986312837" end_time="06:00:00" >
			</activity>
			<leg mode="car">
			</leg>
			<activity type="home" x="251495.77912764362" y="5891865.986312837" >
			</activity>
		</plan>

	</person>

	<!-- ====================================================================== -->

	<person id="42">
		<attributes>
			<attribute name="BDIAgentType" class="java.lang.String" >io.github.agentsoz.ees.agents.bushfire.Resident</attribute>
			<attribute name="InitialResponseThreshold" class="java.lang.Double" >0.0</attribute>
			<attribute name="FinalResponseThreshold"   class="java.lang.Double" >0.0</attribute>
		</attributes>
		<plan selected="yes">
			<activity type="home" x="251534.55207861718" y="5891975.5859247465" end_time="06:00:00" >
			</activity>