<?xml version='1.0' encoding='UTF-8'?>
<networkChangeEvents xmlns:xsi="http://www.w3.org/2001/XMLSchema-instance" xmlns="http://www.matsim.org/files/dtd" xsi:schemaLocation="http://www.matsim.org/files/dtd http://www.matsim.org/files/dtd/networkChangeEvents.xsd">

 <networkChangeEvent startTime="00:00:00">
    <link refId="dummy-linkid-that-should-never-match"/>
    <link refId="1"/>
    <link refId="2"/>
    <link refId="3"/>
    <link refId="4"/>
    <link refId="5"/>
    <link refId="6"/>
    <link refId="7"/>
    <link refId="8"/>
    <link refId="9"/>
    <link refId="10"/>
    <link refId="11"/>
    <link refId="12"/>
    <link refId="13"/>
    <link refId="14"/>
    <link refId="15"/>
    <link refId="16"/>
    <link refId="17"/>
    <link refId="18"/>
    <link refId="19"/>
    <link refId="20"/>
    <link refId="21"/>
    <link refId="22"/>
    <link refId="23"/>
    <link refId="24"/>
    <link refId="25"/>
    <link refId="26"/>
    <link refId="27"/>
    <link refId="28"/>
    <link refId="29"/>
    <link refId="30"/>
    <link refId="31"/>
    <link refId="32"/>
    <link refId="33"/>
    <link refId="34"/>
    <link refId="35"/>
    <link refId="36"/>
    <link refId="37"/>
    <link refId="38"/>
    <link refId="39"/>
    <link refId="40"/>
    <link refId="41"/>
    <link refId="42"/>
    <link refId="43"/>
    <link refId="44"/>
    <link refId="45"/>
    <link refId="46"/>
    <link refId="47"/>
    <link refId="48"/>
    <link refId="49"/>
    <link refId="50"/>
    <link refId="51"/>
    <link refId="52"/>
    <link refId="53"/>
    <link refId="54"/>
    <link refId="55"/>
    <link refId="56"/>
    <link refId="57"/>
    <link refId="58"/>
    <link refId="59"/>
    <link refId="60"/>
    <link refId="61"/>
    <link refId="62"/>
    <link refId="63"/>
    <link refId="64"/>
    <link refId="65"/>
    <link refId="66"/>
    <link refId="67"/>
    <link refId="68"/>
    <link refId="69"/>
    <link refId="70"/>
    <link refId="71"/>
    <link refId="72"/>
    <link refId="73"/>
    <link refId="74"/>
    <link refId="75"/>
    <link refId="76"/>
    <link refId="77"/>
    <link refId="78"/>
    <link refId="79"/>
    <link refId="80"/>
    <link refId="81"/>
    <link refId="82"/>
    <link refId="83"/>
    <link refId="84"/>
    <link refId="85"/>
    <link refId="86"/>
    <link refId="87"/>
    <link refId="88"/>
    <link refId="89"/>
    <link refId="90"/>
    <link refId="91"/>
    <link refId="92"/>
    <link refId="93"/>
    <link refId="94"/>
    <link refId="95"/>
    <link refId="96"/>
    <link refId="97"/>
    <link refId="98"/>
    <link refId="99"/>
    <link refId="100"/>
    <link refId="101"/>
    <link refId="102"/>
    <link refId="103"/>
    <link refId="104"/>
    <link refId="105"/>
    <link refId="106"/>
    <link refId="107"/>
    <link refId="108"/>
    <link refId="109"/>
    <link refId="110"/>
    <link refId="111"/>
    <link refId="112"/>
    <link refId="113"/>
    <link refId="114"/>
    <link refId="115"/>
    <link refId="116"/>
    <link refId="117"/>
    <link refId="118"/>
    <link refId="119"/>
    <link refId="120"/>
    <link refId="121"/>
    <link refId="122"/>
    <link refId="123"/>
    <link refId="124"/>
    <link refId="125"/>
    <link refId="126"/>
    <link refId="127"/>
    <link refId="128"/>
    <link refId="129"/>
    <link refId="130"/>
    <link refId="131"/>
    <link refId="132"/>
    <link refId="133"/>
    <link refId="134"/>
    <link refId="135"/>
    <link refId="136"/>
    <link refId="137"/>
    <link refId="138"/>
    <link refId="139"/>
    <link refId="140"/>
    <link refId="141"/>
    <link refId="142"/>
    <link refId="143"/>
    <link refId="144"/>
    <link refId="145"/>
    <link refId="146"/>
    <link refId="147"/>
    <link refId="148"/>
    <link refId="149"/>
    <link refId="150"/>
    <link refId="151"/>
    <link refId="152"/>
    <link refId="153"/>
    <link refId="154"/>
    <link refId="155"/>
    <link refId="156"/>
    <link refId="157"/>
    <link refId="158"/>
    <link refId="159"/>
    <link refId="160"/>
    <link refId="161"/>
    <link refId="162"/>
    <link refId="163"/>
    <link refId="164"/>
    <link refId="165"/>
    <link refId="166"/>
    <link refId="167"/>
    <link refId="168"/>
    <link refId="169"/>
    <link refId="170"/>
    <link refId="171"/>
    <link refId="172"/>
    <link refId="173"/>
    <link refId="174"/>
    <link refId="175"/>
    <link refId="176"/>
    <link refId="177"/>
    <link refId="178"/>
    <link refId="179"/>
    <link refId="180"/>
    <link refId="181"/>
    <link refId="182"/>
    <link refId="183"/>
    <link refId="184"/>
    <link refId="185"/>
    <link refId="186"/>
    <link refId="187"/>
    <link refId="188"/>
    <link refId="189"/>
    <link refId="190"/>
    <link refId="191"/>
    <link refId="192"/>
    <link refId="193"/>
    <link refId="194"/>
    <link refId="195"/>
    <link refId="196"/>
    <link refId="197"/>
    <link refId="198"/>
    <link refId="199"/>
    <link refId="200"/>
    <link refId="201"/>
    <link refId="202"/>
    <link refId="203"/>
    <link refId="204"/>
    <link refId="205"/>
    <link refId="206"/>
    <link refId="207"/>
    <link refId="208"/>
    <link refId="209"/>
    <link refId="210"/>
    <link refId="211"/>
    <link refId="212"/>
    <link refId="213"/>
    <link refId="214"/>
    <link refId="215"/>
    <link refId="216"/>
    <link refId="217"/>
    <link refId="218"/>
    <link refId="219"/>
    <link refId="220"/>
    <link refId="221"/>
    <link refId="222"/>
    <link refId="223"/>
    <link refId="224"/>
    <link refId="225"/>
    <link refId="226"/>
    <link refId="227"/>
    <link refId="228"/>
    <link refId="229"/>
    <link refId="230"/>
    <link refId="231"/>
    <link refId="232"/>
    <link refId="233"/>
    <link refId="234"/>
    <link refId="235"/>
    <link refId="236"/>
    <link refId="237"/>
    <link refId="238"/>
    <link refId="239"/>
    <link refId="240"/>
    <link refId="241"/>
    <link refId="242"/>
    <link refId="243"/>
    <link refId="244"/>
    <link refId="245"/>
    <link refId="246"/>
    <link refId="247"/>
    <link refId="248"/>
    <link refId="249"/>
    <link refId="250"/>
    <link refId="251"/>
    <link refId="252"/>
    <link refId="253"/>
    <link refId="254"/>
    <link refId="255"/>
    <link refId="256"/>
    <link refId="257"/>
    <link refId="258"/>
    <link refId="259"/>
    <link refId="260"/>
    <link refId="261"/>
    <link refId="262"/>
    <link refId="263"/>
    <link refId="264"/>
    <link refId="265"/>
    <link refId="266"/>
    <link refId="267"/>
    <link refId="268"/>
    <link refId="269"/>
    <link refId="270"/>
    <link refId="271"/>
    <link refId="272"/>
    <link refId="273"/>
    <link refId="274"/>
    <link refId="275"/>
    <link refId="276"/>
    <link refId="277"/>
    <link refId="278"/>
    <link refId="279"/>
    <link refId="280"/>
    <link refId="281"/>
    <link refId="282"/>
    <link refId="283"/>
    <link refId="284"/>
    <link refId="285"/>
    <link refId="286"/>
    <link refId="287"/>
    <link refId="288"/>
    <link refId="289"/>
    <link refId="290"/>
    <link refId="291"/>
    <link refId="292"/>
    <link refId="293"/>
    <link refId="294"/>
    <link refId="295"/>
    <link refId="296"/>
    <link refId="297"/>
    <link refId="298"/>
    <link refId="299"/>
    <link refId="300"/>
    <link refId="301"/>
    <link refId="302"/>
    <link refId="303"/>
    <link refId="304"/>
    <link refId="305"/>
    <link refId="306"/>
    <link refId="307"/>
    <link refId="308"/>
    <link refId="309"/>
    <link refId="310"/>
    <link refId="311"/>
    <link refId="312"/>
    <link refId="313"/>
    <link refId="314"/>
    <link refId="315"/>
    <link refId="316"/>
    <link refId="317"/>
    <link refId="318"/>
    <link refId="319"/>
    <link refId="320"/>
    <link refId="321"/>
    <link refId="322"/>
    <link refId="323"/>
    <link refId="324"/>
    <link refId="325"/>
    <link refId="326"/>
    <link refId="327"/>
    <link refId="328"/>
    <link refId="329"/>
    <link refId="330"/>
    <link refId="331"/>
    <link refId="332"/>
    <link refId="333"/>
    <link refId="334"/>
    <link refId="335"/>
    <link refId="336"/>
    <link refId="337"/>
    <link refId="338"/>
    <link refId="339"/>
    <link refId="340"/>
    <link refId="341"/>
    <link refId="342"/>
    <link refId="343"/>
    <link refId="344"/>
    <link refId="345"/>
    <link refId="346"/>
    <link refId="347"/>
    <link refId="348"/>
    <link refId="349"/>
    <link refId="350"/>
    <link refId="351"/>
    <link refId="352"/>
    <link refId="353"/>
    <link refId="354"/>
    <link refId="355"/>
    <link refId="356"/>
    <link refId="357"/>
    <link refId="358"/>
    <link refId="359"/>
    <link refId="360"/>
    <link refId="361"/>
    <link refId="362"/>
    <link refId="363"/>
    <link refId="364"/>
    <link refId="365"/>
    <link refId="366"/>
    <link refId="367"/>
    <link refId="368"/>
    <link refId="369"/>
    <link refId="370"/>
    <link refId="371"/>
    <link refId="372"/>
    <link refId="373"/>
    <link refId="374"/>
    <link refId="375"/>
    <link refId="376"/>
    <link refId="377"/>
    <link refId="378"/>
    <link refId="379"/>
    <link refId="380"/>
    <link refId="381"/>
    <link refId="382"/>
    <link refId="383"/>
    <link refId="384"/>
    <link refId="385"/>
    <link refId="386"/>
    <link refId="387"/>
    <link refId="388"/>
    <link refId="389"/>
    <link refId="390"/>
    <link refId="391"/>
    <link refId="392"/>
    <link refId="393"/>
    <link refId="394"/>
    <link refId="395"/>
    <link refId="396"/>
    <link refId="397"/>
    <link refId="398"/>
    <link refId="399"/>
    <link refId="400"/>
    <link refId="401"/>
    <link refId="402"/>
    <link refId="403"/>
    <link refId="404"/>
    <link refId="405"/>
    <link refId="406"/>
    <link refId="407"/>
    <link refId="408"/>
    <link refId="409"/>
    <link refId="410"/>
    <link refId="411"/>
    <link refId="412"/>
    <link refId="413"/>
    <link refId="414"/>
    <link refId="415"/>
    <link refId="416"/>
    <link refId="417"/>
    <link refId="418"/>
    <link refId="419"/>
    <link refId="420"/>
    <link refId="421"/>
    <link refId="422"/>
    <link refId="423"/>
    <link refId="424"/>
    <link refId="425"/>
    <link refId="426"/>
    <link refId="427"/>
    <link refId="428"/>
    <link refId="429"/>
    <link refId="430"/>
    <link refId="431"/>
    <link refId="432"/>
    <link refId="433"/>
    <link refId="434"/>
    <link refId="435"/>
    <link refId="436"/>
    <link refId="437"/>
    <link refId="438"/>
    <link refId="439"/>
    <link refId="440"/>
    <link refId="441"/>
    <link refId="442"/>
    <link refId="443"/>
    <link refId="444"/>
    <link refId="445"/>
    <link refId="446"/>
    <link refId="447"/>
    <link refId="448"/>
    <link refId="449"/>
    <link refId="450"/>
    <link refId="451"/>
    <link refId="452"/>
    <link refId="453"/>
    <link refId="454"/>
    <link refId="455"/>
    <link refId="456"/>
    <link refId="457"/>
    <link refId="458"/>
    <link refId="461"/>
    <link refId="462"/>
    <link refId="463"/>
    <link refId="464"/>
    <link refId="465"/>
    <link refId="466"/>
    <link refId="467"/>
    <link refId="468"/>
    <link refId="469"/>
    <link refId="470"/>
    <link refId="471"/>
    <link refId="472"/>
    <link refId="473"/>
    <link refId="474"/>
    <link refId="475"/>
    <link refId="476"/>
    <link refId="477"/>
    <link refId="478"/>
    <link refId="479"/>
    <link refId="480"/>
    <link refId="481"/>
    <link refId="482"/>
    <link refId="483"/>
    <link refId="484"/>
    <link refId="485"/>
    <link refId="486"/>
    <link refId="487"/>
    <link refId="488"/>
    <link refId="489"/>
    <link refId="490"/>
    <link refId="491"/>
    <link refId="492"/>
    <link refId="493"/>
    <link refId="494"/>
    <link refId="495"/>
    <link refId="496"/>
    <link refId="497"/>
    <link refId="498"/>
    <link refId="499"/>
    <link refId="500"/>
    <link refId="501"/>
    <link refId="502"/>
    <link refId="503"/>
    <link refId="504"/>
    <link refId="505"/>
    <link refId="506"/>
    <link refId="507"/>
    <link refId="508"/>
    <link refId="509"/>
    <link refId="510"/>
    <link refId="511"/>
    <link refId="512"/>
    <link refId="513"/>
    <link refId="514"/>
    <link refId="515"/>
    <link refId="516"/>
    <link refId="517"/>
    <link refId="518"/>
    <link refId="519"/>
    <link refId="520"/>
    <link refId="521"/>
    <link refId="522"/>
    <link refId="523"/>
    <link refId="524"/>
    <link refId="525"/>
    <link refId="526"/>
    <link refId="527"/>
    <link refId="528"/>
    <link refId="529"/>
    <link refId="530"/>
    <link refId="531"/>
    <link refId="532"/>
    <link refId="533"/>
    <link refId="534"/>
    <link refId="535"/>
    <link refId="536"/>
    <link refId="537"/>
    <link refId="538"/>
    <link refId="539"/>
    <link refId="540"/>
    <link refId="541"/>
    <link refId="542"/>
    <link refId="543"/>
    <link refId="544"/>
    <link refId="545"/>
    <link refId="546"/>
    <link refId="547"/>
    <link refId="548"/>
    <link refId="549"/>
    <link refId="550"/>
    <link refId="551"/>
    <link refId="552"/>
    <link refId="553"/>
    <link refId="554"/>
    <link refId="555"/>
    <link refId="556"/>
    <link refId="557"/>
    <link refId="558"/>
    <link refId="559"/>
    <link refId="560"/>
    <link refId="561"/>
    <link refId="562"/>
    <link refId="563"/>
    <link refId="564"/>
    <link refId="565"/>
    <link refId="566"/>
    <link refId="567"/>
    <link refId="568"/>
    <link refId="569"/>
    <link refId="570"/>
    <link refId="571"/>
    <link refId="572"/>
    <link refId="573"/>
    <link refId="574"/>
    <link refId="575"/>
    <link refId="576"/>
    <link refId="577"/>
    <link refId="578"/>
    <link refId="579"/>
    <link refId="580"/>
    <link refId="581"/>
    <link refId="582"/>
    <link refId="583"/>
    <link refId="584"/>
    <link refId="585"/>
    <link refId="586"/>
    <link refId="587"/>
    <link refId="588"/>
    <link refId="589"/>
    <link refId="590"/>
    <link refId="591"/>
    <link refId="592"/>
    <link refId="593"/>
    <link refId="594"/>
    <link refId="595"/>
    <link refId="596"/>
    <link refId="597"/>
    <link refId="598"/>
    <link refId="599"/>
    <link refId="600"/>
    <link refId="601"/>
    <link refId="602"/>
    <link refId="603"/>
    <link refId="604"/>
    <link refId="605"/>
    <link refId="606"/>
    <link refId="607"/>
    <link refId="608"/>
    <link refId="609"/>
    <link refId="610"/>
    <link refId="611"/>
    <link refId="612"/>
    <link refId="613"/>
    <link refId="614"/>
    <link refId="615"/>
    <link refId="616"/>
    <link refId="617"/>
    <link refId="618"/>
    <link refId="619"/>
    <link refId="620"/>
    <link refId="621"/>
    <link refId="622"/>
    <link refId="623"/>
    <link refId="624"/>
    <link refId="625"/>
    <link refId="626"/>
    <link refId="627"/>
    <link refId="628"/>
    <link refId="629"/>
    <link refId="630"/>
    <link refId="631"/>
    <link refId="632"/>
    <link refId="633"/>
    <link refId="634"/>
    <link refId="635"/>
    <link refId="636"/>
    <link refId="637"/>
    <link refId="638"/>
    <link refId="639"/>
    <link refId="640"/>
    <link refId="643"/>
    <link refId="644"/>
    <link refId="645"/>
    <link refId="646"/>
    <link refId="647"/>
    <link refId="648"/>
    <link refId="649"/>
    <link refId="650"/>
    <link refId="651"/>
    <link refId="652"/>
    <link refId="653"/>
    <link refId="654"/>
    <link refId="655"/>
    <link refId="656"/>
    <link refId="657"/>
    <link refId="658"/>
    <link refId="659"/>
    <link refId="660"/>
    <link refId="661"/>
    <link refId="662"/>
    <link refId="665"/>
    <link refId="666"/>
    <link refId="667"/>
    <link refId="668"/>
    <link refId="669"/>
    <link refId="670"/>
    <link refId="671"/>
    <link refId="672"/>
    <link refId="673"/>
    <link refId="674"/>
    <link refId="675"/>
    <link refId="676"/>
    <link refId="677"/>
    <link refId="678"/>
    <link refId="679"/>
    <link refId="680"/>
    <link refId="681"/>
    <link refId="682"/>
    <link refId="683"/>
    <link refId="684"/>
    <link refId="685"/>
    <link refId="686"/>
    <link refId="687"/>
    <link refId="688"/>
    <link refId="689"/>
    <link refId="690"/>
    <link refId="691"/>
    <link refId="692"/>
    <link refId="693"/>
    <link refId="694"/>
    <link refId="695"/>
    <link refId="696"/>
    <link refId="697"/>
    <link refId="698"/>
    <link refId="699"/>
    <link refId="700"/>
    <link refId="701"/>
    <link refId="702"/>
    <link refId="703"/>
    <link refId="704"/>
    <link refId="705"/>
    <link refId="706"/>
    <link refId="707"/>
    <link refId="708"/>
    <link refId="709"/>
    <link refId="710"/>
    <link refId="711"/>
    <link refId="712"/>
    <link refId="713"/>
    <link refId="714"/>
    <link refId="715"/>
    <link refId="716"/>
    <link refId="717"/>
    <link refId="718"/>
    <link refId="719"/>
    <link refId="720"/>
    <link refId="721"/>
    <link refId="722"/>
    <link refId="723"/>
    <link refId="724"/>
    <link refId="725"/>
    <link refId="726"/>
    <link refId="727"/>
    <link refId="728"/>
    <link refId="729"/>
    <link refId="730"/>
    <link refId="731"/>
    <link refId="732"/>
    <link refId="733"/>
    <link refId="734"/>
    <link refId="735"/>
    <link refId="736"/>
    <link refId="737"/>
    <link refId="738"/>
    <link refId="739"/>
    <link refId="740"/>
    <link refId="741"/>
    <link refId="742"/>
    <link refId="743"/>
    <link refId="744"/>
    <link refId="745"/>
    <link refId="746"/>
    <link refId="747"/>
    <link refId="748"/>
    <link refId="749"/>
    <link refId="750"/>
    <link refId="751"/>
    <link refId="752"/>
    <link refId="753"/>
    <link refId="754"/>
    <link refId="755"/>
    <link refId="756"/>
    <link refId="757"/>
    <link refId="758"/>
    <link refId="759"/>
    <link refId="760"/>
    <link refId="761"/>
    <link refId="762"/>
    <link refId="763"/>
    <link refId="764"/>
    <link refId="765"/>
    <link refId="766"/>
    <link refId="767"/>
    <link refId="768"/>
    <link refId="769"/>
    <link refId="770"/>
    <link refId="771"/>
    <link refId="772"/>
    <link refId="773"/>
    <link refId="774"/>
    <link refId="775"/>
    <link refId="776"/>
    <link refId="777"/>
    <link refId="778"/>
    <link refId="779"/>
    <link refId="780"/>
    <link refId="781"/>
    <link refId="782"/>
    <link refId="783"/>
    <link refId="784"/>
    <link refId="785"/>
    <link refId="786"/>
    <link refId="787"/>
    <link refId="788"/>
    <link refId="789"/>
    <link refId="790"/>
    <link refId="791"/>
    <link refId="792"/>
    <link refId="793"/>
    <link refId="794"/>
    <link refId="795"/>
    <link refId="796"/>
    <link refId="797"/>
    <link refId="798"/>
    <link refId="799"/>
    <link refId="800"/>
    <link refId="801"/>
    <link refId="802"/>
    <link refId="803"/>
    <link refId="804"/>
    <link refId="805"/>
    <link refId="806"/>
    <link refId="807"/>
    <link refId="808"/>
    <link refId="809"/>
    <link refId="810"/>
    <link refId="811"/>
    <link refId="812"/>
    <link refId="813"/>
    <link refId="814"/>
    <link refId="815"/>
    <link refId="816"/>
    <link refId="817"/>
    <link refId="818"/>
    <link refId="819"/>
    <link refId="820"/>
    <link refId="821"/>
    <link refId="822"/>
    <link refId="823"/>
    <link refId="824"/>
    <link refId="825"/>
    <link refId="826"/>
    <link refId="827"/>
    <link refId="828"/>
    <link refId="829"/>
    <link refId="830"/>
    <link refId="831"/>
    <link refId="832"/>
    <link refId="833"/>
    <link refId="834"/>
    <link refId="835"/>
    <link refId="836"/>
    <link refId="837"/>
    <link refId="838"/>
    <link refId="839"/>
    <link refId="840"/>
    <link refId="841"/>
    <link refId="842"/>
    <link refId="843"/>
    <link refId="844"/>
    <link refId="845"/>
    <link refId="846"/>
    <link refId="847"/>
    <link refId="848"/>
    <link refId="849"/>
    <link refId="850"/>
    <link refId="851"/>
    <link refId="852"/>
    <link refId="853"/>
    <link refId="854"/>
    <link refId="855"/>
    <link refId="856"/>
    <link refId="857"/>
    <link refId="858"/>
    <link refId="859"/>
    <link refId="860"/>
    <link refId="861"/>
    <link refId="862"/>
    <link refId="863"/>
    <link refId="864"/>
    <link refId="865"/>
    <link refId="866"/>
    <link refId="867"/>
    <link refId="868"/>
    <link refId="869"/>
    <link refId="870"/>
    <link refId="871"/>
    <link refId="872"/>
    <link refId="873"/>
    <link refId="874"/>
    <link refId="875"/>
    <link refId="876"/>
    <link refId="877"/>
    <link refId="878"/>
    <link refId="879"/>
    <link refId="880"/>
    <link refId="881"/>
    <link refId="882"/>
    <link refId="883"/>
    <link refId="884"/>
    <link refId="885"/>
    <link refId="886"/>
    <link refId="887"/>
    <link refId="888"/>
    <link refId="889"/>
    <link refId="890"/>
    <link refId="891"/>
    <link refId="892"/>
    <link refId="893"/>
    <link refId="894"/>
    <link refId="895"/>
    <link refId="896"/>
    <link refId="897"/>
    <link refId="898"/>
    <link refId="899"/>
    <link refId="900"/>
    <link refId="901"/>
    <link refId="902"/>
    <link refId="903"/>
    <link refId="904"/>
    <link refId="905"/>
    <link refId="906"/>
    <link refId="907"/>
    <link refId="908"/>
    <link refId="909"/>
    <link refId="910"/>
    <link refId="911"/>
    <link refId="912"/>
    <link refId="913"/>
    <link refId="914"/>
    <link refId="915"/>
    <link refId="916"/>
    <link refId="917"/>
    <link refId="918"/>
    <link refId="919"/>
    <link refId="920"/>
    <link refId="921"/>
    <link refId="922"/>
    <link refId="923"/>
    <link refId="924"/>
    <link refId="925"/>
    <link refId="926"/>
    <link refId="927"/>
    <link refId="928"/>
    <link refId="929"/>
    <link refId="930"/>
    <link refId="931"/>
    <link refId="932"/>
    <link refId="933"/>
    <link refId="934"/>
    <link refId="935"/>
    <link refId="936"/>
    <link refId="937"/>
    <link refId="938"/>
    <link refId="939"/>
    <link refId="940"/>
    <link refId="941"/>
    <link refId="942"/>
    <link refId="943"/>
    <link refId="944"/>
    <link refId="945"/>
    <link refId="946"/>
    <link refId="947"/>
    <link refId="948"/>
    <link refId="949"/>
    <link refId="950"/>
    <link refId="951"/>
    <link refId="952"/>
    <link refId="953"/>
    <link refId="954"/>
    <link refId="955"/>
    <link refId="956"/>
    <link refId="957"/>
    <link refId="958"/>
    <link refId="959"/>
    <link refId="960"/>
    <link refId="961"/>
    <link refId="962"/>
    <link refId="963"/>
    <link refId="964"/>
    <link refId="965"/>
    <link refId="966"/>
    <link refId="967"/>
    <link refId="968"/>
    <link refId="969"/>
    <link refId="970"/>
    <link refId="971"/>
    <link refId="972"/>
    <link refId="973"/>
    <link refId="974"/>
    <link refId="975"/>
    <link refId="976"/>
    <link refId="977"/>
    <link refId="978"/>
    <link refId="979"/>
    <link refId="980"/>
    <link refId="981"/>
    <link refId="982"/>
    <link refId="983"/>
    <link refId="984"/>
    <link refId="985"/>
    <link refId="986"/>
    <link refId="987"/>
    <link refId="988"/>
    <link refId="989"/>
    <link refId="990"/>
    <link refId="991"/>
    <link refId="992"/>
    <link refId="993"/>
    <link refId="994"/>
    <link refId="995"/>
    <link refId="996"/>
    <link refId="997"/>
    <link refId="998"/>
    <link refId="999"/>
    <link refId="1000"/>
    <link refId="1001"/>
    <link refId="1002"/>
    <link refId="1003"/>
    <link refId="1004"/>
    <link refId="1005"/>
    <link refId="1006"/>
    <link refId="1007"/>
    <link refId="1008"/>
    <link refId="1009"/>
    <link refId="1010"/>
    <link refId="1011"/>
    <link refId="1012"/>
    <link refId="1013"/>
    <link refId="1014"/>
    <link refId="1015"/>
    <link refId="1016"/>
    <link refId="1017"/>
    <link refId="1018"/>
    <link refId="1019"/>
    <link refId="1020"/>
    <link refId="1021"/>
    <link refId="1022"/>
    <link refId="1023"/>
    <link refId="1024"/>
    <link refId="1025"/>
    <link refId="1026"/>
    <link refId="1027"/>
    <link refId="1028"/>
    <link refId="1029"/>
    <link refId="1030"/>
    <link refId="1031"/>
    <link refId="1032"/>
    <link refId="1033"/>
    <link refId="1034"/>
    <link refId="1035"/>
    <link refId="1036"/>
    <link refId="1037"/>
    <link refId="1038"/>
    <link refId="1039"/>
    <link refId="1040"/>
    <link refId="1041"/>
    <link refId="1042"/>
    <link refId="1043"/>
    <link refId="1044"/>
    <link refId="1045"/>
    <link refId="1046"/>
    <link refId="1047"/>
    <link refId="1048"/>
    <link refId="1049"/>
    <link refId="1050"/>
    <link refId="1051"/>
    <link refId="1052"/>
    <link refId="1053"/>
    <link refId="1054"/>
    <link refId="1055"/>
    <link refId="1056"/>
    <link refId="1057"/>
    <link refId="1058"/>
    <link refId="1059"/>
    <link refId="1060"/>
    <link refId="1061"/>
    <link refId="1062"/>
    <link refId="1063"/>
    <link refId="1064"/>
    <link refId="1065"/>
    <link refId="1066"/>
    <link refId="1067"/>
    <link refId="1068"/>
    <link refId="1069"/>
    <link refId="1070"/>
    <link refId="1071"/>
    <link refId="1072"/>
    <link refId="1073"/>
    <link refId="1074"/>
    <link refId="1075"/>
    <link refId="1076"/>
    <link refId="1077"/>
    <link refId="1078"/>
    <link refId="1079"/>
    <link refId="1080"/>
    <link refId="1081"/>
    <link refId="1082"/>
    <link refId="1083"/>
    <link refId="1084"/>
    <link refId="1085"/>
    <link refId="1086"/>
    <link refId="1087"/>
    <link refId="1088"/>
    <link refId="1089"/>
    <link refId="1090"/>
    <link refId="1091"/>
    <link refId="1092"/>
    <link refId="1093"/>
    <link refId="1094"/>
    <link refId="1095"/>
    <link refId="1096"/>
    <link refId="1097"/>
    <link refId="1098"/>
    <link refId="1099"/>
    <link refId="1100"/>
    <link refId="1101"/>
    <link refId="1102"/>
    <link refId="1103"/>
    <link refId="1104"/>
    <link refId="1105"/>
    <link refId="1106"/>
    <link refId="1107"/>
    <link refId="1108"/>
    <link refId="1109"/>
    <link refId="1110"/>
    <link refId="1111"/>
    <link refId="1112"/>
    <link refId="1113"/>
    <link refId="1114"/>
    <link refId="1115"/>
    <link refId="1116"/>
    <link refId="1117"/>
    <link refId="1118"/>
    <link refId="1119"/>
    <link refId="1120"/>
    <link refId="1121"/>
    <link refId="1122"/>
    <link refId="1123"/>
    <link refId="1124"/>
    <link refId="1125"/>
    <link refId="1126"/>
    <link refId="1127"/>
    <link refId="1128"/>
    <link refId="1129"/>
    <link refId="1130"/>
    <link refId="1131"/>
    <link refId="1132"/>
    <link refId="1133"/>
    <link refId="1134"/>
    <link refId="1135"/>
    <link refId="1136"/>
    <link refId="1137"/>
    <link refId="1138"/>
    <link refId="1139"/>
    <link refId="1140"/>
    <link refId="1141"/>
    <link refId="1142"/>
    <link refId="1143"/>
    <link refId="1144"/>
    <link refId="1145"/>
    <link refId="1146"/>
    <link refId="1147"/>
    <link refId="1148"/>
    <link refId="1149"/>
    <link refId="1150"/>
    <link refId="1151"/>
    <link refId="1152"/>
    <link refId="1153"/>
    <link refId="1154"/>
    <link refId="1155"/>
    <link refId="1156"/>
    <link refId="1157"/>
    <link refId="1158"/>
    <link refId="1159"/>
    <link refId="1160"/>
    <link refId="1161"/>
    <link refId="1162"/>
    <link refId="1163"/>
    <link refId="1164"/>
    <link refId="1165"/>
    <link refId="1166"/>
    <link refId="1167"/>
    <link refId="1168"/>
    <link refId="1169"/>
    <link refId="1170"/>
    <link refId="1171"/>
    <link refId="1172"/>
    <link refId="1173"/>
    <link refId="1174"/>
    <link refId="1175"/>
    <link refId="1176"/>
    <link refId="1177"/>
    <link refId="1178"/>
    <link refId="1179"/>
    <link refId="1180"/>
    <link refId="1181"/>
    <link refId="1182"/>
    <link refId="1183"/>
    <link refId="1184"/>
    <link refId="1185"/>
    <link refId="1186"/>
    <link refId="1187"/>
    <link refId="1188"/>
    <link refId="1189"/>
    <link refId="1190"/>
    <link refId="1191"/>
    <link refId="1192"/>
    <link refId="1193"/>
    <link refId="1194"/>
    <link refId="1195"/>
    <link refId="1196"/>
    <link refId="1197"/>
    <link refId="1198"/>
    <link refId="1199"/>
    <link refId="1200"/>
    <link refId="1201"/>
    <link refId="1202"/>
    <link refId="1203"/>
    <link refId="1204"/>
    <link refId="1205"/>
    <link refId="1206"/>
    <link refId="1207"/>
    <link refId="1208"/>
    <link refId="1209"/>
    <link refId="1210"/>
    <link refId="1211"/>
    <link refId="1212"/>
    <link refId="1213"/>
    <link refId="1214"/>
    <link refId="1215"/>
    <link refId="1216"/>
    <link refId="1217"/>
    <link refId="1218"/>
    <link refId="1219"/>
    <link refId="1220"/>
    <link refId="1221"/>
    <link refId="1222"/>
    <link refId="1223"/>
    <link refId="1224"/>
    <link refId="1225"/>
    <link refId="1226"/>
    <link refId="1227"/>
    <link refId="1228"/>
    <link refId="1229"/>
    <link refId="1230"/>
    <link refId="1231"/>
    <link refId="1232"/>
    <link refId="1233"/>
    <link refId="1234"/>
    <link refId="1235"/>