<?xml version="1.0" encoding="utf-8"?>
<networkChangeEvents xmlns="http://www.matsim.org/files/dtd" xmlns:xsi="http://www.w3.org/2001/XMLSchema-instance" xsi:schemaLocation="http://www.matsim.org/files/dtd http://www.matsim.org/files/dtd/networkChangeEvents.xsd">
	<networkChangeEvent startTime="00:00:00">
			<link refId="426373-426371-426369-426367-426365-47718-47716-47714-47712-47710-47708-47706-47704-47702-47700-47698-47696-47694-47692"/>
			<link refId="286513-286515-286517-286519-286521-286523-286525-286527-286529-286531-286533-286535-286537-286539-286541-286543-286545-286547-286549-286551-286553-286555-286557-286559-286561-286563-286565-286567-286569-286571-286573-286575-286577-286579-286581-286583-286585-286587-286589-286591-286593"/>
			<link refId="286594-286592-286590-286588-286586-286584-286582-286580-286578-286576-286574-286572-286570-286568-286566-286564-286562-286560-286558-286556-286554-286552-286550-286548-286546-286544-286542-286540-286538-286536-286534-286532-286530-286528-286526-286524-286522-286520-286518-286516-286514"/>
			<link refId="299546-63451-68189-68191-68193-68195-68197-68199-68201-68203-68205-68207"/>
			<link refId="491374-491372-491370-491368-491366-486987-487060-487058-487056-487054-487052-487050-487048-487046-487044-487042-487040-487038-487036-487034-487032-487030-487028-487026-487024"/>
			<link refId="398706-398708-398710-492209-349125-349127-349129-349131-349133-349135-349137-349139-349141-349143-349145-349147-349149-349151-349153-349155-349157-349159-349161-349163-349165-349167-349169-349171-349173-349175"/>
			<link refId="186864-349123-349191-349193-349195"/>
			<link refId="349196-349194-349192-349124-186865"/>
			<link refId="397905-397906-397907-397908-397909-397910-397911-397912-397913-397914-397915-397916-397917-397918-320655-320656-335054-335055"/>
			<link refId="502374-502375-502376-502377-502378-502379-502380-502381"/>
			<link refId="495596-495597-495598-495599-495600-495601-495602-495603-492331"/>
			<link refId="93195-93197-93199-377774-377750-377743-380271"/>
			<link refId="380995-372894-372896-372898-372900-372902-372904-372906-372908"/>
			<link refId="381042-381040-381038-381036-381034-381032-381030-381028-381026-381024-381022-381020-381018-381016-381014-381012-381010-381008"/>
			<link refId="487138-487136-487134-487132-487130-487128-487126-487124-196708-196750-196748-196746"/>
			<link refId="196745-196747-196749-196707-487123-487125-487127-487129-487131-487133-487135-487137"/>
			<link refId="277295-277296-466580-207423-207422-466584-466585-466586-466587-466588-466589-466590-466591-466592-466583-466637-466638"/>
			<link refId="329272-329274-329276-329278-329280-329282-329284-329286-329288-329290-329292-329294-329296"/>
			<link refId="269556-269554-269552-269550-269548-269546-269544-269542-269540-269538-269536-269534-269532-269530-269528"/>
			<link refId="152552-152550-152548-152546-152544-152542-152540-152538-152536-152534-152532-152383-424690-424688"/>
			<link refId="72411-72413-72415-72417-72419-72421-72423-72425-72427-72429-72431-72433-72435-72437"/>
			<link refId="239458-239456-239454-239452-239450-56260-56312-56310-56308-56306-235106-274123-274121-274119"/>
			<link refId="292431-292391-275905-275903-275901-275899-275897-275895"/>
			<link refId="275894-275896-275898-275900-275902-275904-292390-292430"/>
			<link refId="434366-434367-434368-434369-434370-434371-434372-434373-434374-434375-434376-434377"/>
			<link refId="11181-11179-11177-11175-11173-11171-11169-11167-11165-11163-11161-11159-11157-11155-11153-11151-11149-11147-11145-11143-11139-11137-11126-11124-11095-11093-11091-494175-494173-494171-494169-494167-494165-493581-493571-493572-493573-493574-493550-493548-493546-493544"/>
			<link refId="493543-493545-493547-493549-493575-493576-493577-493578-493579-493580-494164-494166-494168-494170-494172-494174-11090-11092-11094-11123-11125-11136-11138-11142-11144-11146-11148-11150-11152-11154-11156-11158-11160-11162-11164-11166-11168-11170-11172-11174-11176-11178-11180"/>
			<link refId="244725-244723-244721-244719-244717-244715-244713-244711-455712-455732-455730-455728-455726-455724-455722-455720-455718-455716-455714"/>
			<link refId="17964-17962-17960-17958-17956-17954-17952-17950-17948-17946-17944-17942-17940-17938-17936-17934-17932-17930-17928-17988-17989-17990-17991-17992-17993-17994-17995-17996-17997-17998-17999-17985-17983-17981-17979"/>
			<link refId="281824-281826-120751-120753-120755-120757-120759-120761-120763-296097-296095-296093-296091-296089-296087-296085-296083-296081-296079-258209"/>
			<link refId="289577-289579-289581-289583-289585-289587-289589-289591-289593-289595-289597-460195-460218-494541-494539-494537-494535-494533-494531-185049-185047"/>
			<link refId="185046-185048-494530-494532-494534-494536-494538-494540-460217-460194-289598-289596-289594-289592-289590-289588-289586-289584-289582-289580-289578"/>
			<link refId="327544-327545-327546-327547-327548-327795"/>
			<link refId="342280-342278-489186-489184-489182-489180-489178-489176-489174-489172-489170-489168-489166-489164-489162-489160-489158-489156-489154-238915"/>
			<link refId="259785-259786"/>
			<link refId="139605-139607-342273-342275-163848-163850-50603-50604-50605-50606-50607-50608-50609-50610-50611-295801-295803-295805-295807-295809"/>
			<link refId="69025-69023-69021-69019-69017-69015-69562-139007-139005-139003-139001-138999-138997-138995-138993-138991"/>
			<link refId="429259-429257-429255-430260-253043-253041"/>
			<link refId="490536-490538-490540-490542-490544-490546-490548-490550-490552-490554-490556-490558-490560-490562-490564-490566-490568-490570"/>
			<link refId="490535-490533-490531-490529-490527-490525-490523-490521-490519-490517-490515-490513-490511-490509-490507-490505-490503-490501-490499"/>
			<link refId="490753-490751-490749-490747-490745-490743-490741-490739-490737-490735-490733-490731-490729-490727-490725-490723-490721-490719-490717-490715-490713-490711-490709-490707-490705"/>
			<link refId="259604-259606-259608-259610-259612-259614-259616-259618-259620-259622-490460-490464-490466-490468-490470-490472-490474-490476-490478"/>
			<link refId="96326-96328-96330-96332-96334-96336-96338-96340-96342-96344-96346-96348"/>
			<link refId="490498-490500-490502-490504-490506-490508-490510-490512-490514-490516-490518-490520-490522-490524-490526-490528-490530-490532-490534"/>
			<link refId="37297-37295-424724-424722-424720-424718-424716-422195-422193-422191-422189-422187-422185-422183-422181-424799-424735-421907"/>
			<link refId="490479-490477-490475-490473-490471-490469-490467-490465-490461-259623-259621-259619-259617-259615-259613-259611-259609-259607-259605"/>
			<link refId="96349-96347-96345-96343-96341-96339-96337-96335-96333-96331-96329-96327"/>
			<link refId="203667"/>
			<link refId="203668"/>
			<link refId="501968-434461-434462-100645-100646"/>
			<link refId="128287-128289-128291-128293-128295-128297-128299"/>
			<link refId="128359-128361-128363-128365-128367-128369-128371-128373-128375-128377-128379-128381-128383-128385-128387-128389-128391-128393-128395-128397-128399-128401-128403"/>
			<link refId="128358-128356-128354-128352-128350-128348-128346-128344-128342-128340-128338-128336-128334-128332-128330-128328-128326-128324-128322-128320-128318-128316-128314-128312-128310-128308-128306-128304-128302"/>
			<link refId="128300-128298-128296-128294-128292-128290-128288"/>
			<link refId="128301-128303-128305-128307-128309-128311-128313-128315-128317-128319-128321-128323-128325-128327-128329-128331-128333-128335-128337-128339-128341-128343-128345-128347-128349-128351-128353-128355-128357"/>
			<link refId="128404-128402-128400-128398-128396-128394-128392-128390-128388-128386-128384-128382-128380-128378-128376-128374-128372-128370-128368-128366-128364-128362-128360"/>
			<link refId="381047-381048-381049-416791-419565-419566-419567-419568-419569-419570"/>
			<link refId="243966-243967-243968-423165-423196-423197-423198-423199-423200-423201"/>
			<link refId="83653-83654-83655-83656-83657-83658-83659-83660-83661-83662-83663-83664-83665"/>
			<link refId="198017-198018-198019-198020-380567-380568-106182-248753-248754-248755-248756-248757-248758-248759-248760-248761-248762-248763-248764"/>
			<link refId="130637-130638-130639-130640-130641-130642-431108-431089-357601-357602-357603-357604"/>
			<link refId="43363-43361-43359-43357-43355-43365-374771"/>
			<link refId="167708-167709-167710-17912-17913-17914-17915-17916-17917-17918-338906-467232-467233"/>
			<link refId="226073-226075-226077-226079-226081-226083-226085-226087-226089-226091-226093-226095-226097-226099-226101-226103"/>
			<link refId="182855-182853-182851-182849-317635-317633-317631-317629-317637-414814"/>
			<link refId="430087-430085-430083"/>
			<link refId="430082-430084-430086"/>
			<link refId="173065-246753-246755-246757-246759-246761-246763-246765-246767-246769-246771-246773-246775-246777-246779-246781-246783-246785-246787-246789-246791-246793-246795-246797"/>
			<link refId="274507-274509-274511-497594-221681-221683"/>
			<link refId="490798-490800-490802-490804-490806-490808-490810-490812-490814-490816-490818-490820-490822-490824-490826-490828-490830-490832-490834"/>
			<link refId="490704-490706-490708-490710-490712-490714-490716-490718-490720-490722-490724-490726-490728-490730-490732-490734-490736-490738-490740-490742-490744-490746-490748-490750-490752"/>
			<link refId="490639-490637-490635-490633-490631-490629-490627-490625-490623-490621-490619-490617-490615-490613-490611-490609-490607-490605-490603-490601"/>
			<link refId="490600-490602-490604-490606-490608-490610-490612-490614-490616-490618-490620-490622-490624-490626-490628-490630-490632-490634-490636-490638"/>
			<link refId="490571-490569-490567-490565-490563-490561-490559-490557-490555-490553-490551-490549-490547-490545-490543-490541-490539-490537"/>
			<link refId="203669-233349"/>
			<link refId="205585-205586-205587-205588-205589-205590-205591-205592-205593-205594-205595-205596-205597-205598-205599-205600-205601-205602-205603-205604-205605-205606-205607-205608-205609-205610-3208-233310-233311-233312-233313-233314-233315-233316-233317-233318-233319-233320-233321-233322"/>
			<link refId="44002-44003-44004-44005-44006-44007-44008-44009-44010-44011-44012-44013-44014-44015-44016-44017-44018-44045-1492-1493"/>
			<link refId="218774-218775-218776-218777-218778-218779-218780-218781-218782-218783-218784-218785-218786-218787"/>
			<link refId="231789-231790-231791-231792-231793-231794-231795-116102-116107-116108-116109-116110-116111"/>
			<link refId="233706-233707-233708-233709-233710-233711-117381-116077-116078-116079-116080-116081-116082-116083"/>
			<link refId="3404-3405-3406-3407-3408-27739-27737-27738-504445-82100-82101-82102-82103-82104-82105-430309-430310-430311-430312"/>
			<link refId="258208-296078-296080-296082-296084-296086-296088-296090-296092-296094-296096-120764-120762-120760-120758-120756-120754-120752-281827-281825"/>
			<link refId="403214-403216-403218"/>
			<link refId="99329-99330"/>
			<link refId="493304-492329"/>
			<link refId="203720-203718-203716-203714-203712-203710-203708-203706-203279-103466"/>
			<link refId="220739-220740-220741-57955-57149-57150-57151"/>
			<link refId="57988-57986-57984-57982-57980-57978-57976-57974-57972-57970-179612-179614-179616-179618-179620-179622-179624"/>
			<link refId="57989-57991-57993-57995-230024-57147-57188-240891-240893-240895-240897-240899-240901-240903-240905-220763-220850-220852-220854-220856-220858"/>
			<link refId="186688-186686-186684-186682-186680-186678-147712-147710-147708"/>
			<link refId="186689-147701-147703-186626-186628-186630-189699-189701-189703-157027-156995-156997-156999-157001"/>
			<link refId="157002-157000-156998-156996-157028-189704-189702-189700-186631-186629-186627-147704-147702-186690"/>
			<link refId="84705-84703-84701-84699-84697-84695-84693-84691-84689-84687-84685-84683-84681-84679"/>
			<link refId="365406-184282-184280-184278-184276-184274-184272-184270"/>
			<link refId="184269-184271-184273-184275-184277-184279-184281-365405"/>
			<link refId="122057-122059-122061-254174-254176-254178-254180-254182-254184-254186-353988-353990-421447-324756-324758-324760-324762-324764-324766-324768-324770-324772-324774-324776-421454-421456"/>
			<link refId="429229-348022-348020-348018-348016-348014-348012-348010-348008-348006-348004-348002-348000-347998-347996-347994-347992-347990-347988-347986-347984-347982-347980-347978-347976-347974"/>
			<link refId="484708-484710-484712-484714-484716-484718-484720-484722-484724-484726-484728-484730-484732"/>
			<link refId="35826-35824-35822-35828-33292-33007-33005-33003-33001-32999-32997-32995-32993-32991-32989-32987-32985"/>
			<link refId="484733-484731-484729-484727-484725-484723-484721-484719-484717-484715-484713-484711-484709"/>
			<link refId="105968-105966-105964-105962-105960-105958-105956-105954"/>
			<link refId="105953-105955-105957-105959-105961-105963-105965-105967"/>
			<link refId="71439-181404-181408-181410-181412-181414-181416-181418-181420-181422"/>
			<link refId="203257-203258-203259-494035"/>
			<link refId="258378-274513-455797-455799-458781-287594-287596-287598-287600"/>
			<link refId="78327-78328-78329-78330-78331-78332-78333-78334-80629-80630-113957-113958-113959-113960-113961-113962"/>
			<link refId="461651-461653-461655-461149-461147-461145-461143-461141-461139-461137-461135-461133-461131-461129-465085"/>
			<link refId="38261"/>
			<link refId="38389"/>
			<link refId="248232-248234-248236-253804-253806-253808-253810-253812-253814-253816"/>
			<link refId="253817-253815-253813-253811-253809-253807-253805-248237-248235-248233"/>
			<link refId="258484-258486-408333-407900-407902-407904-407906-407908-407910-407912-407914-407916-407918-407920-407922-407924-407926"/>
			<link refId="481257-99375-99373-99371-99369-452360-407981-407979-407977-407975-407973-407971-407969-407967-407965-407963-407961-407959-407957"/>
			<link refId="481258-481260-481262-481264-481266-481268-481270-481272-481274-481276-481315-481317-481080-341651-237886-237888-237893"/>
			<link refId="72438-72436-72434-72432-72430-72428-72426-72424-72422-72420-72418-72416-72414-72412"/>
			<link refId="493511-493509-493507-493505-493503-493501-493499-493497-493495-493493-493491-493489-493487-493485-493483-493481-493479-493477"/>
			<link refId="493476-493478-493480-493482-493484-493486-493488-493490-493492-493494-493496-493498-493500-493502-493504-493506-493508-493510"/>
			<link refId="52326"/>
			<link refId="289529-247142-247126-247127-247128-247129-247130-247131-247132-247133"/>
			<link refId="412868-412866-412864-412862-412860-412858-412856-412854-412852-412850"/>
			<link refId="412869-412871-412873-412875-412877-412879-412881-412883-412885-412887-412889"/>
			<link refId="412890-412888-412886-412884-412882-412880-412878-412876-412874-412872-412870"/>
			<link refId="412849-412851-412853-412855-412857-412859-412861-412863-412865-412867"/>
			<link refId="413016-413014-413012-413010-413008-413006-413004-413002-413000-412998-412996-412994-412992"/>
			<link refId="412991-412993-412995-412997-412999-413001-413003-413005-413007-413009-413011-413013-413015"/>
			<link refId="381007-381009-381011-381013-381015-381017-381019-381021-381023-381025-381027-381029-381031-381033-381035-381037-381039-381041"/>
			<link refId="387249-387247-317323-317327"/>
			<link refId="372909-372907-372905-372903-372901-372899-372897-372895-380996"/>
			<link refId="503458-503456-503454-503452-503450-503448"/>
			<link refId="503495"/>
			<link refId="503447-503449-503451-503453-503455-503457"/>
			<link refId="502062-502060-502058-502056-502054-502052-502050-502048-502046-502044"/>
			<link refId="503496"/>
			<link refId="502043-502045-502047-502049-502051-502053-502055-502057-502059-502061"/>
			<link refId="494036-494037-494038-466579-466556-54924-494044-494045"/>
			<link refId="261927-261925-261923-261921-261919-261917-261915-261913-261911-261909-261907-261905-443666-152502-152500-152498-152496-152494-152492"/>
			<link refId="166284-166286-166288-166290-166292-166294-166296-166298-166300-166302-166304-166306-166308-166310-166312-166314-166316"/>
			<link refId="282399-282401-282403-282405-282407-282409-374150-374148-374146-374144-374142-374140-374138-374136-374134-374132-374130-374128-374126-374124"/>
			<link refId="58061-58062-57134-57135"/>
			<link refId="104195-104193-104191-104189-104187-104185-104183-104181-104179-104177-104175-94091-94089-92908-92910-92912-92914"/>
			<link refId="117174-117176-117178-117180-146463-146391-146393-146395-146397-146399-146401-146403-146405-146407-146409-146411-146413-146415-146417-146419-146421-146423-146425"/>
			<link refId="482938-482939-482940-482941-482942-482943-482944-482945-482946-482947-482948-482949-482950-482951-482952-482953-482954"/>
			<link refId="119029-119030-119031-119032-119033-119034-119035-119036-119037-10726-166370-166371-166372-166373"/>
			<link refId="258337-258338-483767-483752-483640"/>
			<link refId="109175-59775"/>
			<link refId="455837-455835-455853-215390-215388-215386-215384-263989-263991-263993-263995-263997-263999"/>
			<link refId="406411-406413-406415-406417-406419-406421-417382-417530-417532-417534-417536"/>
			<link refId="417537-417535-417533-417531-417383-406422-406420-406418-406416-406414-406412"/>
			<link refId="52325"/>
			<link refId="197891-197892-197893-197894-502429-496098-496099-496100-496101-496102-496103"/>
			<link refId="109332-109330-109718-109716-109714-109712-125660-125658-125656-125654"/>
			<link refId="184366-229467-229468-229469-229470-53345-59738-59739-59740-59741-59742"/>
			<link refId="414453-414454-53899-53934-53935-53936-229481-229482"/>
			<link refId="492330-493305"/>
			<link refId="468389-468391-468393-349352-350466-350468-350470-350472-350474"/>
			<link refId="350475-350473-350471-350469-350467-349353-468394-468392-468390"/>
			<link refId="359230-359228-359226-359224"/>
			<link refId="359223-359225-359227-359229"/>
			<link refId="107670-107668-107666-107664-107662-107660-107658-107656-107654-107632-107630-34696-34694"/>
			<link refId="455713-455715-455717-455719-455721-455723-455725-455727-455729-455731-455711-244710-244712-244714-244716-244718-244720-244722-244724"/>
			<link refId="484425-484426-484428-484429-484430-484431-484432-484433-484434-484435-484436-484437-484438-484439-484440-484441-484442-484443-484444-484445-484446-484447"/>
			<link refId="124802-124719-125417-125418-125419-125420-125421-125422-125423-125044-125667-125668-125669-125670"/>
			<link refId="237992-237993-237994-51226-51232-51233-51234-51235-51236"/>
			<link refId="263677-263678-54036-54799-54800-54801-54802-54803-54804-54805-54806-54807"/>
			<link refId="209665-209666"/>
			<link refId="200985-200986-200987-200988-110021"/>
			<link refId="382934-145847-145845-145843-145841-65446"/>
			<link refId="65445-145840-145842-145844-145846-382933"/>
			<link refId="108372-108373-164002-164354"/>
			<link refId="164048-164346"/>
			<link refId="295657-295658-189005-474088"/>
			<link refId="13008-13006-13004-13002-13010-501711-501709-501707-501705"/>
			<link refId="380158-380159-380160-380161-380162-380163-380164-380165-380166-380167-147301-216864"/>
			<link refId="278734-278696-13295-278475-278473-278471-278469-278467-278465-278463-278461"/>
			<link refId="278460-278462-278464-278466-278468-278470-278472-278474-13294-278695-278733"/>
			<link refId="165459-165461-165463-165465-469284-469286-469234-469236-469238"/>
			<link refId="469239-469237-469235-469287-469285-165466-165464-165462-165460"/>
			<link refId="79786-79787-79788-79789-79759-169165"/>
			<link refId="479171-479169-479167-479165-479163-479161-479159-479157-479155-479153-479151-479149-479147-479145"/>
			<link refId="103465-203278-203705-203707-203709-203711-203713-203715-203717-203719"/>
			<link refId="240140-240141-240142-240143-240144-240145-240146-240147-240148-239617-239618-239619-239622-239623-239624"/>
			<link refId="290467-290469-290471-290473-290475-504443-504365"/>
			<link refId="504366-504444-290476-290474-290472-290470-290468"/>
			<link refId="102225-102227-102229-102231-102233-102235-102237-100110-102141-102143-102145"/>
			<link refId="426587-119709-230991-230992"/>
			<link refId="133279-133277-133275-133273-105023-104908-104910-104912-104914-104916-104918-104920-104922"/>
			<link refId="233350-203670"/>
			<link refId="410035-410033-410031-410029-410027-410025-410050"/>
			<link refId="3194-3195-3196-3197-3198-3199-3200-3201-3202-3203-3204-3205-3206-3207-313057-313058-313059-313060-313061-313062-313063-313064-313065-313066-313067-313068-313069-313070-313071-313072-313073-313074-313075-313076-313077-313078-313079-313080-313081-313082"/>
			<link refId="220681-220682-220683-220684-220685-220686-220687"/>
			<link refId="234758-234756-234754-234752-234750-234748-234746-234744-234742-234740-234738-234736-234734-234732-234730-234728-234726-234724-234722-234720-234718-234716-234714-234712-234710-234708-234706-234704-234702-234700-234698-234696-234694"/>
			<link refId="220517-220515-220513-220511-220509-220507-220505-220503-220501-220499-220497-220495-220493-220491-220489-220487-220485-220483-220481-220479-220477"/>
			<link refId="221684-221682-497595-274512-274510-274508"/>
			<link refId="220476-220478-220480-220482-220484-220486-220488-220490-220492-220494-220496-220498-220500-220502-220504-220506-220508-220510-220512-220514-220516"/>
			<link refId="441827-441828-391138-243707-243708-243709-143670-151634-151635-151636-390961-390962-390963"/>
			<link refId="301199-301200-301201-301202-301203-301204-301205-301206-301207-301208-301209-301179-301180-430681-430682-430683-430684-430685"/>
			<link refId="434611-434612-434613-434614-434615-301197-301198-301191-301192-301193-301194-301195-301196-107616-107617-107618-107935-107936"/>
			<link refId="485300-485298-485296-485294-485292-485290-485304-130591-130589-33824-130587-130585-130583-130581-130579-130577-130575-33872-33873-33874-33875-33876-33877-33878-33879-33880-3861-3859"/>
			<link refId="17978-17980-17982-17984-18000-18001-18002-18003-18004-18005-18006-17986-17987-17927-17929-17931-17933-17935-17937-17939-17941-17943-17945-17947-17949-17951-17953-17955-17957-17959-17961-17963"/>
			<link refId="292618-292619-292620-292621-292622-292623-292642-292643"/>
			<link refId="297775-417034-417017-417018-417019-417020"/>
			<link refId="288965-288963-288961-288959-288957-288955-288953-288951-288949-288947-288945-288943-288941-288939-288937-288935-288933-288931-288929-288927-288925-288990-289117-289115-289113-289111-289109"/>
			<link refId="484416-175091-175107-175108-175109-175110"/>
			<link refId="441260-441261-322216-322217-322218-322219-175092-175115-175116-175117-175118-175119-175120-175121-175122"/>
			<link refId="223816-223818-223820-223822-223824-223826-223828-223830-223832-223834-223836-223838-223840-223842"/>
			<link refId="164601-164599"/>
			<link refId="439716-439718-439720-439722-439724-22380-22382-22384-22386-22388-22390-22392-22394-22396"/>
			<link refId="63281-63283-63285-203282-203284-203286"/>
			<link refId="164598-164600"/>
			<link refId="291822-291826-473254-473252-473250-473248-473246-473244-473242-473240-473238-473236"/>
			<link refId="107563-107564-107565-107566-107567-445175-445176-445163"/>
			<link refId="272775-213729-213727"/>
			<link refId="223762-223763-223764-223765-82453-313734"/>
			<link refId="255413-255415-78077-78075-78073-78071-78069-78067-78065-78063"/>
			<link refId="100230-100231-100232-100233-100234-100235-100236-100237-100238-100239-119418-100414-100415-100416-100417-100418"/>
			<link refId="355402-355400-355398-355396-355394-355392-355390-355388-355386-355251-355356-355358-355360-355362-355364-355366-355368-355370-355372-355374-355376-355378-355380-355382-243395-243396-243397-243398-243399-243400-243401"/>
			<link refId="355293-355295-355297-355299-355301-355303-355305-355307-355309-355311-355313-355315-355317-355319-355321-355323-355325-355327-355329-355331-355333-355335-355337-355339-355341-355343-355345-355347"/>
			<link refId="225153-225135-225136-225137-225138-225139-225140-225141-355292-355290-355288-355286-355284-355282-355280-355278-355276-355274-355272-355270-355268-355266-355264-355262-355260-355258-355256-355254"/>
			<link refId="417143-417144-417145-417146-417147-434806-434807-434808-434809"/>
			<link refId="423102-423103-423104-423105-423106-423107-384810-143995-143996-143997-143998-143999-144000"/>
			<link refId="414522-414523-414524-414525-414526-441469-441470-347588-347589-332686-332694-332695-332696-332697-332698"/>
			<link refId="282285-282252-281334-281336-281338-281340"/>
			<link refId="281341-281339-281337-281335-282253-282286"/>
			<link refId="172102-172103-172104-101739-101871"/>
			<link refId="131832-131833-131834-131835-431113-431119-431120-431121-431122"/>
			<link refId="75894-75896-75992-441734-441736"/>
			<link refId="75893-75891-75903-75901-75918-75920-75922-75924-75926-75928-75930-75932-75934-75936-75938-75940-75942-75944-75946-75948-75950-75952-75954"/>
			<link refId="75955-75953-75951-75949-75947-75945-75943-75941-75939-75937-75935-75933-75931-75929-75927-75925-75923-75921-75919-75900-75902-75890-75892"/>
			<link refId="414827-414828-414829-414830-414831-414832-414833-414834-414835"/>
			<link refId="414813-317636-317628-317630-317632-317634-182848-182850-182852-182854"/>
			<link refId="22397-22395-22393-22391-22389-22387-22385-22383-22381-439725-439723-439721-439719-439717"/>
			<link refId="157770"/>
			<link refId="157771"/>
			<link refId="391179-25082-24667-24668-24669-24670-24671-24672-24673"/>
			<link refId="26264-26266-26268-26270-26272-26274-26276-26278-26280-26282-26284-26286"/>
			<link refId="119917-119915-119913-119911-119909-119907-119905-119903-119901-119899-119897-119895"/>
			<link refId="160934-160936-160938-35519-35520-35521-35522-35523-161359-161357-161355-161353-161371-218923-218921"/>
			<link refId="218920-218922-161370-161352-161354-161356-161358-35506-35507-35508-35509-35510-35511-35512-35513-35514-35515-35516-35517-35518-160939-160937-160935"/>
			<link refId="160947-160945-160943-160941-161222-479998-479999-480000-480001-480002-480003-480004-161199-161197-161216-448926-448924-448922"/>
			<link refId="417590-417588-417586-417584-417582-417580-417578-417576-418045-107607-107488-107486-107484-107482-107480"/>
			<link refId="12287-12289-281624-281604-281606-281608-281610-281612-281614-281616-281618-281620-281622"/>
			<link refId="419056-419058-419060-419062-419064-419066-419068-419070-419072-419074-419076-419078-419080-419082-419084-419086-419088-419090-419092-419094-419096-419098-419100"/>
			<link refId="213726-213728-272774"/>
			<link refId="102146-102144-102142-100111-102238-102236-102234-102232-102230-102228-102226"/>
			<link refId="419623-419625-23575-23736-23738-23740"/>
			<link refId="23741-23739-23737-23576-419626-419624"/>
			<link refId="361094-389838-389840"/>
			<link refId="395686-395689-466555"/>
			<link refId="466554-395688-395687"/>
			<link refId="235832-235834-235836-235838-235840-235842-235844-235846-235848-235850-235852-482462-482539-482541-482543-482545-482547-482549"/>
			<link refId="104606-104869-104871-104873-105101-105102-105103-105104-105105-105106-105107-105108-105109-105141-105143-105145-105147-105149-104411-104412-104413-104414-104415-104416-104417-104418-104419-104630-104632-104634-104636-104595-104601"/>
			<link refId="104602-104596-104637-104635-104633-104631-104420-104421-104422-104423-104424-104425-104426-104427-104428-104429-105150-105148-105146-105144-105142-105110-105111-105112-105113-105114-105115-105116-105117-105118-105119-104874-104872-104870-104607"/>
			<link refId="451156-451157-451158-451159-451160-451161-451162-451163-451164-451165-451166-451167-451168-451169-451170-451171-172514-172515-172516"/>
			<link refId="332821-332813-332814-332815-332816-332817-332818-332819-332820-313521-313522"/>
			<link refId="100350-100352-100354-100356-100358-100360-100362-100364-100366-100368-100370-100372-100374-100376-100378-100380-100382-100384-100386-100388-100390"/>
			<link refId="418115-418117-418119-418121-418123-418125-454515-22868-22870-22872-22874"/>
			<link refId="22914-22916-22918-22920-22922-454268-22876-22878-22880-22882-22884-22886"/>
			<link refId="56744-51867-51865-51863"/>
			<link refId="100965-100966-100967-336667"/>
			<link refId="361976-361978-361980-361982-361984-361986-361988"/>
			<link refId="361989-361987-361985-361983-361981-361979-361977"/>
			<link refId="75349-75347-75345-75343-75341-75339-75337-75335-75333-75331-75329-75327-75325-75323-75321-75307-75294-75296-75298-75300-75302-75304"/>
			<link refId="297470-297468-297466-297519-297520-297521-297522-297523-297524-297525-297526-298830-298862-289473-289471-289469-289467"/>
			<link refId="433543-433544-433545-433546-433547-433548-502538-500321-500322-500323"/>
			<link refId="154021-154022-154023-164406-164407-164408-164409-343579-211098-211099-211100-211101-211102-211103-211104-211105-211106-107570-445172-445173-445174"/>
			<link refId="83640-83641-83642-83643-83644-83645-83646-83647-83648-83649-83650-83651-83652"/>
			<link refId="321713-321714-321715-321716-321717-321718-321719-321720-321721-321722-321723-321724-321725-321726-321727-321728-321729-321730-321731-321732-321733-321734-321735-321736-321737-321738-321739-321740"/>
			<link refId="437552-437553-437554-437555-437556-437557-437558-437559-437560-57477-57478-57479-57480-57481-57482-57483-57484-57485-57486"/>
			<link refId="278099-278100-278101-278102-278103-278104-278105-278106-278107-278108-278109-278110-278111-278112-278113-278114"/>
			<link refId="434410-434411"/>
			<link refId="17676-17674-17672-17670-17668-17666-17664-17662"/>
			<link refId="17661-17663-17665-17667-17669-17671-17673-17675"/>
			<link refId="465131-465133-84235-47202-47204-47206"/>
			<link refId="47207-47205-47203-84236-465134-465132"/>
			<link refId="395616-84237-84239-84241-84243-84245-84247"/>