<?xml version="1.0" encoding="utf-8"?>
<networkChangeEvents xmlns="http://www.matsim.org/files/dtd" xmlns:xsi="http://www.w3.org/2001/XMLSchema-instance" xsi:schemaLocation="http://www.matsim.org/files/dtd http://www.matsim.org/files/dtd/networkChangeEvents.xsd">
	<networkChangeEvent startTime="00:00:00">
			<link refId="258484-258486-408333-407900-407902-407904-407906-407908-407910-407912-407914-407916-407918-407920-407922-407924-407926"/>
			<link refId="258337-258338-483767-483752-483640"/>
			<link refId="109175-59775"/>
			<link refId="59813-59814-59815-59816-59817-108702-59767-59768"/>
			<link refId="108995-108997-108999-109001-109003-24750-24752-24754-24756-24758-24760-24762-24764-24766-24768"/>
			<link refId="154027-154025-33305-33303-33301-33299-33297-33281-55563-55561-55559-55557-55555-55553-55551-55549-261654-261652-261650-261648-261646"/>
			<link refId="463158-463160-463162-260152-40045-40043-40041-40039-40037-40035"/>
			<link refId="261645-261647-261649-261651-261653-55548-55550-55552-55554-55556-55558-55560-55562-33280-33296-33298-33300-33302-33304-154024-154026"/>
			<link refId="298041-298034"/>
			<link refId="32270-32271-32272-32273-298081-298075"/>
			<link refId="24769-24767-24765-24763-24761-24759-24757-24755-24753-24751-109004-109002-109000-108998-108996"/>
			<link refId="407927-407925-407923-407921-407919-407917-407915-407913-407911-407909-407907-407905-407903-407901-408334-258487-258485"/>
			<flowCapacity type="absolute" value="0.0"/>
	</networkChangeEvent>
	<networkChangeEvent startTime="01:00:00">
			<link refId="95569-95571-95573-95575-95577-95579-95581-95583"/>
			<link refId="258944-258946-258948-258950-258952-258954-258956-258958"/>
			<link refId="258682-258683"/>
			<link refId="120985-120986-120987-120988"/>
			<link refId="120997-120999-121001-121003-121005-121007-121009-121011-121013-121015-121017-121019-121021-121023-121025"/>
			<link refId="121026-121024-121022-121020-121018-121016-121014-121012-121010-121008-121006-121004-121002-121000-120998"/>
			<link refId="123179-123180-123181-123182-123183"/>
			<link refId="123256-123257-123258-123259"/>
			<link refId="123260-123262-123264-123266-123268-123270-123272-123274-123276-62060-61982-61984-61986"/>
			<link refId="399186-399188-399190-399192-399194-399196-399198-399200-399202-399204-399206-399208-399210-399212-399214-399216-399218-399220-399222"/>
			<link refId="61988-61990-61992-61994-61996-61998-62000-62002-62004-62006-62008-62010-62012-62014-62016-62018-62020-62022-62024-62026-62028-62030"/>
			<link refId="61987-61985-61983-62061-123277-123275-123273-123271-123269-123267-123265-123263-123261"/>
			<link refId="192884"/>
			<link refId="156193-156194-156195"/>
			<link refId="333859-333857-333855-333853-333851-333849-333847"/>
			<link refId="333860-333862-333864-333866-333868-333870-333872-333874-333876-333878-333880-333882-333884-333886-333888"/>
			<link refId="333890-333892-333894-333896-333898-333900-333902-333904-333906-333908-333910-333912-333914-333916-333918-333920"/>
			<link refId="333889-333887-333885-333883-333881-333879-333877-333875-333873-333871-333869-333867-333865-333863-333861"/>
			<link refId="493826-493827-493828-493829-493830"/>
			<link refId="333921-333919-333917-333915-333913-333911-333909-333907-333905-333903-333901-333899-333897-333895-333893-333891"/>
			<link refId="132127-132125-132133-132131-132129-336104-336102-336100-336098-336096"/>
			<link refId="345939-345940-345941-345942-345943-345944-345945"/>
			<link refId="345946-345947-345948-345949-345950-345951-345952-345953-345954-345955-345956"/>
			<link refId="132102-132104-132106-132108-132110-132112-132114-132116-132118-132120-132122-345957-345959-345961-345963-345965-345967-345969-345971-345973-345975-345977-345979-155349-155255-155257-155259-155261-155263-155265-155267-155269-155271"/>
			<link refId="155272-155270-155268-155266-155264-155262-155260-155258-155256-155350-345980-345978-345976-345974-345972-345970-345968-345966-345964-345962-345960-345958-132123-132121-132119-132117-132115-132113-132111-132109-132107-132105-132103"/>
			<link refId="65225-65226-65227"/>
			<link refId="66287-66288-66289-66290-66291-66292"/>
			<link refId="66086-66088-66090"/>
			<link refId="175552-175554-175556-175558-175560-175562-175564-175430-175432-175434-175436-175438-175440-175442-175444-175446-175448-175450-175452-175454-175456-175458-175460-175462-175464"/>
			<link refId="175551-245100-245098-245096-245094-245092-245090-245088-245086-245084-245082-245080-245078-245076-245074-245072-245070-245068"/>
			<link refId="175466-175468-175470-175472-175474-175476-175478-175480-175482-175484-175486-230462-204297-204406-230456-230458-230460-382935-382937-382940"/>
			<link refId="175465-175463-175461-175459-175457-175455-175453-175451-175449-175447-175445-175443-175441-175439-175437-175435-175433-175431-175565-175563-175561-175559-175557-175555-175553"/>
			<link refId="68520-68522-68524"/>
			<link refId="382939-68516-68517-68518-68519"/>
			<link refId="68525-68523-68521"/>
			<link refId="66302-66303-66304-66305"/>
			<link refId="297396-297397-297398-297399-297400"/>
			<link refId="155393-155391-155389"/>
			<link refId="353901-353902-353903"/>
			<link refId="353909-353910-353911-353912-353913"/>
			<link refId="354330-354331-354332"/>
			<link refId="353914-353915-353916-353917-353918-353919"/>
			<link refId="66269-66270-66271-66272"/>
			<link refId="353920-353921-353899-353900"/>
			<link refId="369453"/>
			<link refId="369457-369458-369459-369460-369461-369462"/>
			<link refId="445066-25532-25534-25536-414759-414761-414763-414765-414767"/>
			<link refId="414769-414770-414771-414772"/>
			<link refId="414768-414766-414764-414762-414760-25537-25535-25533-445067"/>
			<link refId="133567-133568-133569-133570-133571-133572-133573-133574-133575"/>
			<link refId="378178-378179"/>
			<link refId="133689-133687-133685-133683-133681-133679-133677-133675-133673-133671-133669-133667-133665"/>
			<link refId="378180"/>
			<link refId="3844-3846"/>
			<link refId="378181-378182-378183-378184"/>
			<link refId="377999-378001-378003"/>
			<link refId="382258-382260-382262-382264-382266-382268-382270-382272-382274-382276-382278-382280"/>
			<link refId="378152-378153-378154-378155-378156"/>
			<link refId="378157-378158-378159-378160-378161"/>
			<link refId="410091-410093-410095-410097-135728-135730-135732-135734-135736-135738-135740-135742-135744-135746-135748-135750-135752-135754-135756-135758-135760-135762-135764-135766-135768-135770-135772-135774-135776-135778-135780-46554-46555"/>
			<link refId="382281-382279-382277-382275-382273-382271-382269-382267-382265-382263-382261-382259"/>
			<link refId="416245-416247-416249-416251-416253-416255-416257"/>
			<link refId="135441-135442"/>
			<link refId="416258-416256-416254-416252-416250-416248-416246"/>
			<link refId="283085-283086"/>
			<link refId="416194"/>
			<link refId="371210-371211-371212-371213-371214-371215-371216-371217-371218-371219-371220-371221-371222-351223-351224"/>
			<link refId="482525-482526-482527-482528-482529-482530-482531"/>
			<link refId="482516-482517-482518-482519"/>
			<link refId="482520-482521-482522-482523"/>
			<link refId="146153-146154-146155-146156-146157-146158-146159-146160-146161-146162"/>
			<link refId="482524"/>
			<link refId="482532-482533-482534-482535-482536"/>
			<link refId="476368-476369-476370-476371-476372-476373"/>
			<link refId="382708-382706"/>
			<link refId="65377-65378-65379-65380"/>
			<link refId="476374-476375-476376-476377-476378-476379-476380-476381-476382-476383-476384"/>
			<link refId="476357-476358-476359-476360"/>
			<link refId="476385-476386-476387-476388-476389-476390-476391-476392-476393-476394-476395-476396-476397-476398-476399-476400-476401-476402"/>
			<link refId="476403-476404-476405-476406-476407-476408-476409-476410-476411-476354-476355-476356"/>
			<link refId="476438-476439-476440-476441-476442-476443-476444-476445-476446-476447"/>
			<link refId="396316-382574-382576-382578-382580-382582-382584-382586-382588-382590-382592-382594-382596-382598-382600-382602-382604-382606"/>
			<link refId="396337-396338-396339-396340-396341-396342-396343-396344-396345"/>
			<link refId="384075-382661-382663-382665-382667-382669-382671-382673-382675-382677-382679-382681-382683-382685-382687-382689-382691-382693-382695-382697-382699-382701-382703"/>
			<link refId="396346-396318-396319-396320-396321-396322-396323-396324-396325"/>
			<link refId="396326-396327-396328-396329-396330-396331-396332-396333-396334-396335-396336"/>
			<link refId="382614-382814-382812-382810-382808-382806-382804-382802-382800-382798"/>
			<link refId="126386-126387-126370-126371"/>
			<link refId="482938-482939-482940-482941-482942-482943-482944-482945-482946-482947-482948-482949-482950-482951-482952-482953-482954"/>
			<link refId="472097-472099-472101-472103-472105-472107-472109-472111-472113-472115-472117-472119-472121-472123-472125-472127-472129"/>
			<link refId="472130-472128-472126-472124-472122-472120-472118-472116-472114-472112-472110-472108-472106-472104-472102-472100-472098"/>
			<link refId="64999-64997-64995-64993-64991-64989-64987-64974-64975-64976-64977-155361-155362-155363-155364-155365-155366-155367-155368-65652-65654-65656-65658-65660-65662-65664-65666-65668-65670"/>
			<link refId="65000-65002-65004-65006-382715-382717-382719-382721-382723-382784"/>
			<link refId="65671-65669-65667-65665-65663-65661-65659-65657-65655-65653-65510-65511-65512-65513-65514-65515-65516-65517-154028-154029-154030-64986-64988-64990-64992-64994-64996-64998"/>
			<link refId="65192-65193-65194"/>
			<link refId="65376"/>
			<link refId="353904-353905-353906-353907"/>
			<link refId="65639-65640-65641-65642-65643-65644-65645-65646-65647-65648-65649-65650"/>
			<link refId="382785-382724-382722-382720-382718-382716-65007-65005-65003-65001"/>
			<link refId="66028-66026-66024-66022-66020-66018-66016-66014-66012-66010-66008-66006-66004-66002-66000-65998-65996-65994-65992-65990"/>
			<link refId="66029-66031-66033-66035-66037-66039-66041-66043-66045-66047-66049-66051-66053-66055-66057-66059-245005-245007"/>
			<link refId="66142-66143-66144"/>
			<link refId="65989-65991-65993-65995-65997-65999-66001-66003-66005-66007-66009-66011-66013-66015-66017-66019-66021-66023-66025-66027"/>
			<link refId="66299-66300-66301"/>
			<link refId="66220-66221-66222-66223-66224"/>
			<link refId="66214-66215-66216-66217-66218-66219"/>
			<link refId="66229-66230-66231-66232-66233-66234"/>
			<link refId="66312-66313-66314-66315"/>
			<link refId="66248-66249-66250-66251-66252-66253"/>
			<link refId="66199-66197-66195-66193-66191-66189-66187-66185-66183-66181-66179-66177-66175-66173-66171-66169-66167"/>
			<link refId="66166-66168-66170-66172-66174-66176-66178-66180-66182-66184-66186-66188-66190-66192-66194-66196-66198"/>
			<link refId="65501-65502-334549-120984-120954-120955"/>
			<link refId="120957-120958-120956-334495-65508-65509"/>
			<link refId="66091-66089-66087"/>
			<link refId="66308-66309-66310-66311"/>
			<link refId="65160-65161-65162-65163"/>
			<link refId="65164-65165-65166-65167"/>
			<link refId="65168-65149-65150-65151-65152"/>
			<link refId="65189-65190"/>
			<link refId="426275-426276-426277-426278-426279"/>
			<link refId="426272-426273-426274"/>
			<link refId="148402-148403-148404-148405-148406-148407-148408-148409"/>
			<link refId="426202-426184-426185"/>
			<link refId="426189"/>
			<link refId="145789-145790-145791-145792"/>
			<link refId="145801"/>
			<link refId="145802-145803-145804-145805-145806"/>
			<link refId="148440-148441-148442-148443-148444-148445-148446-148447-148448"/>
			<link refId="482537-482538-482514-482515"/>
			<link refId="145886-145887"/>
			<link refId="382934-145847-145845-145843-145841-65446"/>
			<link refId="145899-145900-145901"/>
			<link refId="146019-146020-146021-146022"/>
			<link refId="148430-148431-148432-148433-148434-148435-148436-148437-148438"/>
			<link refId="146023-146024-146025"/>
			<link refId="146017-146018"/>
			<link refId="65445-145840-145842-145844-145846-382933"/>
			<link refId="65444-65442"/>
			<link refId="283036-283037-283038-283039-283040-283041-283042"/>
			<link refId="146033-146034-146035-146016"/>
			<link refId="146210-146211-146212-146213-146214"/>
			<link refId="146169-146170-146171-146172-146173-146174-146175-146176-146177-146178-146179-146180-146181-146182-146183-146184"/>
			<link refId="146190"/>
			<link refId="105132-105133-105134-105135-105136-105137-105138-105139-105140"/>
			<link refId="146188-146189"/>
			<link refId="146191-146192"/>
			<link refId="146202-146203-146204-146205-146206-146207-146208-146209"/>
			<link refId="146187"/>
			<link refId="146215-146216-146217-146218-146219-146220-146221-146222-146223-146224-146225-146226-146227-146228-146229-146230-146231-146232"/>
			<link refId="146163-146164-146165-146166-146167-146168"/>
			<link refId="146193"/>
			<link refId="146200-146201-146185-146186"/>
			<link refId="148024-148025-148026-148027-148028-148029-148030"/>
			<link refId="146194-146195"/>
			<link refId="347930-347931-347932-347933-347934-347935-347936-347937-347938-347939"/>
			<link refId="146196-146197-146198-146199"/>
			<link refId="329962-329963-329964-329965"/>
			<link refId="258959-258957-258955-258953-258951-258949-258947-258945"/>
			<link refId="95584-95582-95580-95578-95576-95574-95572-95570"/>
			<link refId="95585-95587-95589-95591-95593-95595-95597-95599-95601-95603"/>
			<link refId="95604-95602-95600-95598-95596-95594-95592-95590-95588-95586"/>
			<link refId="95605-95607-95609-95611-95613-95615-95617"/>
			<link refId="405139-405137-405135-405133-405131-405129-405127-405125-405123-405121-405119-405117-405115"/>
			<link refId="283096-283097-283098-283099-283100-283101"/>
			<link refId="283053-351570-351571-351572-351573-351574-351575-351576-351577-351578-351579-351580-351581"/>
			<link refId="283074-283075-283076-283077-283078"/>
			<link refId="283045-283046-283047-283048-283049-283050-283051-283052"/>
			<link refId="283087-283088"/>
			<link refId="283068-283069-283070-283071-283072-283073"/>
			<link refId="283102-283103-283104"/>
			<link refId="283079-283080-283081-283082-283083"/>
			<link refId="283054-283055-283056-283057-283058-283059-351582"/>
			<link refId="283084-283065-283066-283067"/>
			<link refId="283771-283772-283773-283774-283775-283776-283777-283778-283779"/>
			<link refId="407829-407827-407825-407823-407821-407819-407817-407815-407813"/>
			<link refId="407830-407832-407834-407836"/>
			<link refId="407812-407814-407816-407818-407820-407822-407824-407826-407828"/>
			<link refId="407811-407809-407807"/>
			<link refId="407806-407808-407810"/>
			<link refId="407803"/>
			<link refId="407801-407799-407797-407795-407793-407791-407789"/>
			<link refId="407802"/>
			<link refId="407788-407790-407792-407794-407796-407798-407800"/>
			<link refId="246611-246612-246613"/>
			<link refId="408164-408165"/>
			<link refId="492396-492398-492400-492402-492404-492406"/>
			<link refId="493882-493883-493884-493885-493886-493887"/>
			<link refId="494298-494299-494300-494301-494302-494303-494304"/>
			<link refId="493905-493907-493909-493911-493913-493915-494187-494188-494189-494190-494191-494192-494176-494177-494178-494437-494439-494441-494443-494445-494447-494449-494451-494453"/>
			<link refId="492407-492405-492403-492401-492399-492397"/>
			<link refId="492408-492410-492412-492414-492416-492418"/>
			<link refId="336094-336092-336090-336088"/>
			<link refId="336095-336097-336099-336101-336103-132128-132130-132132-132124-132126"/>
			<link refId="492419-492417-492415-492413-492411-492409"/>
			<link refId="492420-492422-492424"/>
			<link refId="492527-492528-492529-492530-492531-492532-492533-492515-492516-494407-494409-494411-494413-494415-494417-494419-494421-494423-494425-494427-494429-494431-492507-492508-492509-492510-492511-492495-492496-492497-492498-492499-493928-493930-493932-493934-493936-286434-286435-286436-286437-286438-286439-286440-286441-286442-285769-285767-285765-285763-285761-285759"/>
			<link refId="494454-494452-494450-494448-494446-494444-494442-494440-494438-494179-494180-494181-494182-494183-494184-494185-494186-493916-493914-493912-493910-493908-493906"/>
			<link refId="492425-492423-492421"/>
			<link refId="493998-493999-494000-494001"/>
			<link refId="492449-492450"/>
			<link refId="492560"/>
			<link refId="492451-492452-492453"/>
			<link refId="492445-492446-492447-492448"/>
			<link refId="494039-494040-494041-494042"/>
			<link refId="492463"/>
			<link refId="492697-492695-492693-492691-492689-492687-492685-492683-492681-492679"/>
			<link refId="494096-494097-494098-494099-494100"/>
			<link refId="492454"/>
			<link refId="492713-492714-492715-492716-492717-492718-492719-492720"/>
			<link refId="492721-492722-492701-492702"/>
			<link refId="493873-493874-493875-493876-493877"/>
			<link refId="493889-493890-493891-493892-493893-493894"/>
			<link refId="492455-492456-492457-492458"/>
			<link refId="494085-494086-494087-494088-494089"/>
			<link refId="492460-492461-492462"/>
			<link refId="494031-494032-494033-494034"/>
			<link refId="492710-492711-492712"/>
			<link refId="492459"/>
			<link refId="492703-492704-492705-492706-492707-492708-492709"/>
			<link refId="492678-492680-492682-492684-492686-492688-492690-492692-492694-492696"/>
			<link refId="493964-493965-493966-493967-493968"/>
			<link refId="503703-503701-503699-503697-503695-503693-503691-503689-503687"/>
			<link refId="494401-494402-494403-494404-494405-494406"/>
			<link refId="493973-493974-493975-493976-493977"/>
			<link refId="336057-336059-336061-336063-336065-336067-336069-336071-336073-336075-336077-336079-336081-336083-336085"/>
			<link refId="492474"/>
			<link refId="492475-492476-492477"/>
			<link refId="494074-494075-494076-494077-494078"/>
			<link refId="492472-492473"/>
			<link refId="492552-492553-492554-492555"/>
			<link refId="492470-492471"/>
			<link refId="492478-492479-492480-492464-492465"/>
			<link refId="492466-492467-492468-492469"/>
			<link refId="492547-492548-492549"/>
			<link refId="503686-503688-503690-503692-503694-503696-503698-503700-503702"/>
			<link refId="503685-503683-503681-503679"/>
			<link refId="503678-503680-503682-503684"/>
			<link refId="503677"/>
			<link refId="503676"/>
			<link refId="503675-503673-503671"/>
			<link refId="503670-503672-503674"/>
			<link refId="503669-503667-503665-503663"/>
			<link refId="503662-503664-503666-503668"/>
			<link refId="503572-503573-503574"/>
			<link refId="503863-503864"/>
			<link refId="503865-503866-503849"/>
			<link refId="424004-424005-424006-424007-424008-424009-424010-424011-424012-424013-424014-424015-424016-424017-424018-424019-424020-424021-424022-424023-424024-424025-424026-424027-424028"/>
			<link refId="503860-503861-503862"/>
			<link refId="503850"/>
			<link refId="503854-503855-503856"/>
			<link refId="503516-503517-503518-503519"/>
			<link refId="503644-503642-503640-503638-503636-503634-503632-503630"/>
			<link refId="503628-503626-503624-503622-503620-503618"/>
			<link refId="503629-503631-503633-503635-503637-503639-503641-503643"/>
			<link refId="503616"/>
			<link refId="503617-503619-503621-503623-503625-503627"/>
			<link refId="503615"/>
			<link refId="503614-503612-503610-503608-503606"/>
			<link refId="503604-503602"/>
			<link refId="503605-503607-503609-503611-503613"/>
			<link refId="503601-503603"/>
			<link refId="479351-479352"/>
			<link refId="133722-133723-133724-133725-133726-133727"/>
			<link refId="479347-479348-479349-479350"/>
			<link refId="479353-479343"/>
			<link refId="484420-484421-484422-484423-484424"/>
			<link refId="479344-479345-479346"/>
			<link refId="479171-479169-479167-479165-479163-479161-479159-479157-479155-479153-479151-479149-479147-479145"/>
			<link refId="386760-386761"/>
			<link refId="386951-386952-386953-386954-386955-386956"/>
			<link refId="247586-247584-247582-247580-247578-247576-247574-247572"/>
			<link refId="247517-247519-247521-247523-247525-247527-247529-247531"/>
			<link refId="446366-446367-446368-446369-446370-446371-446372"/>
			<link refId="446377-446378-446379-446380-446381"/>
			<link refId="375566-375564-375562-375560-375558"/>
			<link refId="119500-119501-119502-119481-119482"/>
			<link refId="417590-417588-417586-417584-417582-417580-417578-417576-418045-107607-107488-107486-107484-107482-107480"/>
			<link refId="423988-423989-423990-423991-423992-423993-423994-423995-423996"/>
			<link refId="443663-443661-443665-192931-192929-192927-192925-192923-192921-192919-192917-192915-192913-192911-192909-192907-192905-192903-192901-192899-192897-192895-192893-192891-192889-192887"/>
			<link refId="423997-423998-423999"/>
			<link refId="424308-424309-424310-192820-192821-192822-192823-192824-192825-192826-192827-192828-192829-192830-192831-192832-192833-192834-192835-192836-192837-192838-192839"/>
			<link refId="333846-333848-333850-333852-333854-333856-333858"/>
			<link refId="333845-333828-321463-321461-321459-321457-321455-321453"/>
			<link refId="104700-104701-104702-104703-104704-104705-104706-104707"/>
			<link refId="104606-104869-104871-104873-105101-105102-105103-105104-105105-105106-105107-105108-105109-105141-105143-105145-105147-105149-104411-104412-104413-104414-104415-104416-104417-104418-104419-104630-104632-104634-104636-104595-104601"/>
			<link refId="145799-145800"/>
			<link refId="105078-105079-105080-105081-105082-105083-105084-105085-105086-105087-105088"/>
			<link refId="104602-104596-104637-104635-104633-104631-104420-104421-104422-104423-104424-104425-104426-104427-104428-104429-105150-105148-105146-105144-105142-105110-105111-105112-105113-105114-105115-105116-105117-105118-105119-104874-104872-104870-104607"/>
			<link refId="357689-357687-357685-357683-357681-357679-357677-357675"/>
			<link refId="105019-105020-105021-105022-105004-105005-105006-105007-105008-105009-105010"/>
			<link refId="104143-104145-104147-104149"/>
			<link refId="105011-105012-105013-105014-105015-105016-105017-105018"/>
			<link refId="156203-156204-156205-156206"/>
			<link refId="323032-323030-323028-323026-323024-323022-323020-323018-323016-323014-323012"/>
			<link refId="321421-321422-321423-321424-321425-321426-321427-321428-321429-321430"/>
			<link refId="321452-321454-321456-321458-321460-321462-333827-333844"/>
			<link refId="192886-192888-192890-192892-192894-192896-192898-192900-192902-192904-192906-192908-192910-192912-192914-192916-192918-192920-192922-192924-192926-192928-192930-443664-443660-443662"/>
			<link refId="156207-156208-156209-156210-156211-156212-156213-156214-156215"/>
			<link refId="192885"/>
			<link refId="321471-321472-321473-321474-321475"/>
			<link refId="156251-156252-156253-156254"/>
			<link refId="399223-399221-399219-399217-399215-399213-399211-399209-399207-399205-399203-399201-399199-399197-399195-399193-399191-399189-399187"/>
			<link refId="399224-399226-399228-399230-399232-399234-399236-399238-4764"/>
			<link refId="323011-323013-323015-323017-323019-323021-323023-323025-323027-323029-323031"/>
			<link refId="323010-323008-323006-323004-323002-323000-322998-322996-322994-322992-322990-322988-322986-322984-322982-62047-62045-62043-62041-62039-62037-62035-62033"/>
			<link refId="245008-245006-66060-66058-66056-66054-66052-66050-66048-66046-66044-66042-66040-66038-66036-66034-66032-66030"/>
			<link refId="245009-245011-245013-245015-245017-245019-245021-245023-245025-245027-245029-245031-245033-245035"/>
			<link refId="145797-145798"/>
			<link refId="145793-145794-145795-145796"/>
			<link refId="148388-148389-148390-148391-148392-148393-148394-148395-148396-148397"/>
			<link refId="386765-386766-386767-386768"/>
			<link refId="366606-366607-366631-366632"/>
			<link refId="263376-263377-263378-263379-263380-263381-263382-263383"/>
			<link refId="263372-263373-263374-263375"/>
			<link refId="79486-79487-79488-79489"/>
			<link refId="263384-263367-263368"/>
			<link refId="366603-366604-366605-366633-366634-366635-366636-366637"/>
			<link refId="386769"/>
			<link refId="425045-425046-425047-425048-425049-425050-425051-425052-425053-425054-425055-425056"/>
			<link refId="369454-369455-369456"/>
			<link refId="369518-369519-369520-369521-369522-369523-369524-247076-247077-247078-247079-247080-247081-247082"/>
			<link refId="369469-369470-369471-369472"/>
			<link refId="283785-283786-283787-283788-283789-283790-283791-283792-283793-283794-283795-283796-283797-283798-283799-283780-283781"/>
			<link refId="126405-126403-126401-126399-126397-126395-126393"/>
			<link refId="425184-425185"/>
			<link refId="426283-426268-426269-426270-426271"/>
			<link refId="283092-283093-283094-283095"/>
			<link refId="65440-65438-65436-65434-65432-65430-65428-65426-65424-65422-65420-65418-65416-65414-65412-65410-65408"/>
			<link refId="65441-65443"/>
			<link refId="420643-420644-420645"/>
			<link refId="262415-262417-262419-262421-262423-262425-262427-262409-262411"/>
			<link refId="425156-425154-425152-425150-425148-236533-425146-425144-425142"/>
			<link refId="439217-439218-439219-439220-439221-439222-439223-439224-439225-439226-439227-439228"/>
			<link refId="408169"/>
			<link refId="445253-445254-41045-41046"/>
			<link refId="408170-408171-408172"/>
			<link refId="494013-494014-494015-494016"/>
			<link refId="408175-408176-408157-408158"/>
			<link refId="408159"/>
			<link refId="407837-407835-407833-407831"/>
			<link refId="416195-416196-416197-416198-416199-416200"/>
			<link refId="407848"/>
			<link refId="407854-407855-407856"/>
			<link refId="407880-407881"/>
			<link refId="415726-415728-415730-415732-415734-415736-415738"/>
			<link refId="415661-415662-415663-415664-415665"/>
			<link refId="407857-407858-407840-407841-407842-407843"/>
			<link refId="416782-416783-416784"/>
			<link refId="407844-407845-407846-407847"/>
			<link refId="407852-407853"/>
			<link refId="415740-415742"/>
			<link refId="415739-415737-415735-415733-415731-415729-415727"/>
			<link refId="415743-415741"/>
			<link refId="415744-415746-415748"/>
			<link refId="415750-415752-396873-397919-397921"/>
			<link refId="415749-415747-415745"/>
			<link refId="415803-415804-415805-415806-415807-415808-415809"/>
			<link refId="397922-397920-396874-415753-415751"/>
			<link refId="407884-407885-407886-407887-407888-407889"/>
			<link refId="407873-407874-407875-407876-407877-407878-407879"/>
			<link refId="407890-407891"/>
			<link refId="407892-407893-407894-407895-407896-407897"/>
			<link refId="344895-344896-344897-344898"/>
			<link refId="407898-407899-407882-407883"/>
			<link refId="347720-347721-347722-347723-347724"/>
			<link refId="145932-145933-145934-145935-145936-145937-145938"/>
			<link refId="425171-425172-425173"/>
			<link refId="420626-420628-420630-420632-420634-420636-420638-420640-145983-145984-145985-145969-145970-145971-145972-145973-145974-145975-426804-426802-426800-426798-426796-426794-426792-426790"/>
			<link refId="426789-426791-426793-426795-426797-426799-426801-426803-145976-145977-145978-145979-145980-145981-145982-420641-420639-420637-420635-420633-420631-420629-420627"/>
			<link refId="450337-450339-450341"/>
			<link refId="426788-426786-426784-426782-426780-426778-426776-426774-426772-426815-426813-426811-426809-145931-145929"/>
			<link refId="145686-145684-145682-145680-145678-145676-145674"/>
			<link refId="450342-450340-450338"/>
			<link refId="145687-145689-420624-420649-420651-420653-420655"/>
			<link refId="420657-420658"/>
			<link refId="482464-482465-482466"/>
			<link refId="420659-420660-420661"/>
			<link refId="420662-420663-420664-420665-420666-420667-420668"/>
			<link refId="420669-420670"/>
			<link refId="420646-420647-420648"/>
			<link refId="420671"/>
			<link refId="426805-426806-426807"/>
			<link refId="423867-423868"/>
			<link refId="423869-423870-423871"/>
			<link refId="423872-423873-423874"/>
			<link refId="420677-420678-420679-420680-420681-420682"/>
			<link refId="423875-423876-423877"/>
			<link refId="423878-423879-423862"/>
			<link refId="323269-323270-323271"/>
			<link refId="135139-135140-135141-135142"/>
			<link refId="116401"/>
			<link refId="148382-148383-148384-148385"/>
			<link refId="145928-145930-426808-426810-426812-426814-426771-426773-426775-426777-426779-426781-426783-426785-426787"/>
			<link refId="431626-145876-145878-145880-145882-145884"/>
			<link refId="426203-426204"/>
			<link refId="235815"/>
			<link refId="293626-293628-293630-293632-293634-293636-293638-293640-293642-293644-293646-293648-293650-293652-293654-293656-293658-293660-293662-293664-293666-293668-293670"/>
			<link refId="425141-425143-425145-236534-425147-425149-425151-425153-425155"/>
			<link refId="425022-425023-425024-425025-425026-425027-425028-425029-425030-425031-425012"/>
			<link refId="425059-351583-351584-351585-351586-351587-351588-351589-351590-351591-351592-351593-351594-351595-351596-351597"/>
			<link refId="425186-425187"/>
			<link refId="426190-426191-426192"/>
			<link refId="145771-145772-145773-145774"/>
			<link refId="426193-426194-426195-426196-426197"/>
			<link refId="148216-148217-148218-148219-148220-148221-148222"/>
			<link refId="426280-426281-426282"/>
			<link refId="343044-343045-343046-343047-343048-343049"/>
			<link refId="343055-343056-343057"/>
			<link refId="343058-343059-343043"/>
			<link refId="343000-343001-343002"/>
			<link refId="382607-382605-382603-382601-382599-382597-382595-382593-382591-382589-382587-382585-382583-382581-382579-382577-382575-396317"/>
			<link refId="79544-79545-79546"/>
			<link refId="344079-344077-344075-344073-344071-344069-344067-344065-344063-344061-344059-344057"/>
			<link refId="131780-131781-131782-131783-131784-131785-131786-131787-131788"/>