<?xml version="1.0" encoding="utf-8"?>
<networkChangeEvents xmlns="http://www.matsim.org/files/dtd" xmlns:xsi="http://www.w3.org/2001/XMLSchema-instance" xsi:schemaLocation="http://www.matsim.org/files/dtd http://www.matsim.org/files/dtd/networkChangeEvents.xsd">
	<networkChangeEvent startTime="00:00:00">
		<link refId="258484-258486-408333-407900-407902-407904-407906-407908-407910-407912-407914-407916-407918-407920-407922-407924-407926"/>
		<link refId="258337-258338-483767-483752-483640"/>
		<link refId="109175-59775"/>
		<link refId="59813-59814-59815-59816-59817-108702-59767-59768"/>
		<link refId="108995-108997-108999-109001-109003-24750-24752-24754-24756-24758-24760-24762-24764-24766-24768"/>
		<link refId="154027-154025-33305-33303-33301-33299-33297-33281-55563-55561-55559-55557-55555-55553-55551-55549-261654-261652-261650-261648-261646"/>
		<link refId="463158-463160-463162-260152-40045-40043-40041-40039-40037-40035"/>
		<link refId="261645-261647-261649-261651-261653-55548-55550-55552-55554-55556-55558-55560-55562-33280-33296-33298-33300-33302-33304-154024-154026"/>
		<link refId="298041-298034"/>
		<link refId="32270-32271-32272-32273-298081-298075"/>
		<link refId="24769-24767-24765-24763-24761-24759-24757-24755-24753-24751-109004-109002-109000-108998-108996"/>
		<link refId="407927-407925-407923-407921-407919-407917-407915-407913-407911-407909-407907-407905-407903-407901-408334-258487-258485"/>
		<flowCapacity type="scaleFactor" value="10"/>
	</networkChangeEvent>
</networkChangeEvents>
