<?xml version="1.0" encoding="utf-8"?>
<networkChangeEvents xmlns="http://www.matsim.org/files/dtd" xmlns:xsi="http://www.w3.org/2001/XMLSchema-instance" xsi:schemaLocation="http://www.matsim.org/files/dtd http://www.matsim.org/files/dtd/networkChangeEvents.xsd">
	<networkChangeEvent startTime="00:00:00">
			<link refId="424515-424517-424519-424521-424523-424525"/>
			<link refId="424481-429762-429760-429758-429756"/>
			<link refId="424537-424539-424541"/>
			<link refId="424536-424534-424532-424530-424528"/>
			<link refId="426398-426339-426341-426343-426345-426347-426349-426351-426353-426355-426357-426359-429488"/>
			<link refId="181371-181369-181367-181365-181363-181361-181359-181357-181355-181353-181351-181349-181347-181345-181343-181341-181339-181337-181335"/>
			<link refId="181372-181374-181376-181378-181380-181382-181384-181386-181388-181390-181392-181394-181396"/>
			<link refId="426373-426371-426369-426367-426365-47718-47716-47714-47712-47710-47708-47706-47704-47702-47700-47698-47696-47694-47692"/>
			<link refId="106085-106083-106081-106117-267964-267962-267960-267958-267954"/>
			<link refId="268106-268104-334149-334147-334145-334143-334141-334139-334137-334135-334133-334131-334129-334127-334125-334123-334121-334119"/>
			<link refId="19486-19487-19488-274279-338371"/>
			<link refId="223427-223429-223431-223433-223435-223437-223439-223441-223443-322231-322233-322235-322237-487373-487375-487377-487379-487381-487383-487385-487387-487389"/>
			<link refId="312483-312485"/>
			<link refId="286513-286515-286517-286519-286521-286523-286525-286527-286529-286531-286533-286535-286537-286539-286541-286543-286545-286547-286549-286551-286553-286555-286557-286559-286561-286563-286565-286567-286569-286571-286573-286575-286577-286579-286581-286583-286585-286587-286589-286591-286593"/>
			<link refId="286594-286592-286590-286588-286586-286584-286582-286580-286578-286576-286574-286572-286570-286568-286566-286564-286562-286560-286558-286556-286554-286552-286550-286548-286546-286544-286542-286540-286538-286536-286534-286532-286530-286528-286526-286524-286522-286520-286518-286516-286514"/>
			<link refId="299546-63451-68189-68191-68193-68195-68197-68199-68201-68203-68205-68207"/>
			<link refId="491374-491372-491370-491368-491366-486987-487060-487058-487056-487054-487052-487050-487048-487046-487044-487042-487040-487038-487036-487034-487032-487030-487028-487026-487024"/>
			<link refId="398706-398708-398710-492209-349125-349127-349129-349131-349133-349135-349137-349139-349141-349143-349145-349147-349149-349151-349153-349155-349157-349159-349161-349163-349165-349167-349169-349171-349173-349175"/>
			<link refId="186864-349123-349191-349193-349195"/>
			<link refId="349196-349194-349192-349124-186865"/>
			<link refId="61726-61729-61658-61660-61662-61664-61666"/>
			<link refId="347831-347833-347835-347837-347839-347841-347843-347845-347847-347849-347851"/>
			<link refId="397905-397906-397907-397908-397909-397910-397911-397912-397913-397914-397915-397916-397917-397918-320655-320656-335054-335055"/>
			<link refId="502374-502375-502376-502377-502378-502379-502380-502381"/>
			<link refId="495596-495597-495598-495599-495600-495601-495602-495603-492331"/>
			<link refId="441239-441225-151332-151330-151328-151326-151324-151322-437045-437043-437041-437039-437037-437035-437033-437031-437029-437027-437025-437023-437021"/>
			<link refId="48112-48113-48114-439638-439639-63287-63288-63289"/>
			<link refId="259360-259358-344890-344888-344886-93177-93179-93181-93183-93185-93187-93189-93191-93193"/>
			<link refId="93194-93192-93190-93188-93186-93184-93182-93180-93178-344885-344887-344889-259357-259359"/>
			<link refId="93195-93197-93199-377774-377750-377743-380271"/>
			<link refId="395517-395515-395513-395511"/>
			<link refId="395518-395520"/>
			<link refId="395523"/>
			<link refId="380995-372894-372896-372898-372900-372902-372904-372906-372908"/>
			<link refId="413063-413065-413067"/>
			<link refId="381042-381040-381038-381036-381034-381032-381030-381028-381026-381024-381022-381020-381018-381016-381014-381012-381010-381008"/>
			<link refId="400611-169216-169214-169212-169210-169208-169206-169204-169202-169200"/>
			<link refId="400637-400635-400633-400631-400629-400627-400625"/>
			<link refId="400638"/>
			<link refId="400640-400642-400644-400646-400648"/>
			<link refId="400639"/>
			<link refId="387287-387285-387283-387281-387279-387277-387275-387273-387271"/>
			<link refId="386637-386639-386641-386643-386645-386647-386649-386651-386653-386655-386657-386659"/>
			<link refId="169199-169201-169203-169205-169207-169209-169211-169213-169215-400610"/>
			<link refId="448939-448937-448935-448933-448931-449438-455244"/>
			<link refId="53636"/>
			<link refId="386660-386658-386656-386654-386652-386650-386648-386646-386644-386642-386640-386638"/>
			<link refId="423554-423556-423558-423560-423562-423564-423566-46091-46133-46135-46137"/>
			<link refId="437020-437022-437024-437026-437028-437030-437032-437034-437036-437038-437040-437042-437044-151321-151323-151325-151327-151329-151331-441224-441238"/>
			<link refId="487138-487136-487134-487132-487130-487128-487126-487124-196708-196750-196748-196746"/>
			<link refId="196745-196747-196749-196707-487123-487125-487127-487129-487131-487133-487135-487137"/>
			<link refId="484904-484906-484908-484910-484912-484914-484916-484918-224426-224440-224442-224444-224446"/>
			<link refId="196598-196600-196602-480786-480764-480766-480768-480770-480772"/>
			<link refId="151739-151741-151743-151745-151747-151749-151751-151753-151755-151757"/>
			<link refId="277295-277296-466580-207423-207422-466584-466585-466586-466587-466588-466589-466590-466591-466592-466583-466637-466638"/>
			<link refId="397999-398000-398001-398002-398003-398004-398005-398006-398007-398008-398009-398010-398011-398012-398013-398014-398015"/>
			<link refId="479807-479808-479809-479810-479811-479812-479813-479814-479815-479816-479817-479818-479819"/>
			<link refId="158962-158954-479802-479803-479804-479805-479806"/>
			<link refId="407180-407182-407184-130491-130512-130514-130516-130518-130520-130522"/>
			<link refId="152863-152861-152859"/>
			<link refId="329272-329274-329276-329278-329280-329282-329284-329286-329288-329290-329292-329294-329296"/>
			<link refId="130523-130521-130519-130517-130515-130513-130492-407185-407183-407181"/>
			<link refId="138679-138681-138683-138685-138687-138689-138691-138693"/>
			<link refId="225804-225802-225800-225798-225796-225794"/>
			<link refId="225805"/>
			<link refId="152314-152315-152316-152317-152318"/>
			<link refId="455223-455225-455227-455229-455231-455233-455235-455237-455239-455241"/>
			<link refId="426124-426122-426120-426118-426116-426114"/>
			<link refId="455243-449437-448930-448932-448934-448936-448938"/>
			<link refId="455242-455240-455238-455236-455234-455232-455230-455228-455226-455224"/>
			<link refId="500034-500032-500030-500028-500026"/>
			<link refId="401327-388459-388457-388455-388453-388451"/>
			<link refId="299164"/>
			<link refId="380470-380468-380466-380354-388502-388504-388506-388508"/>
			<link refId="380471-380473-380475-380477-380479-380481"/>
			<link refId="269556-269554-269552-269550-269548-269546-269544-269542-269540-269538-269536-269534-269532-269530-269528"/>
			<link refId="269557-269559-269561-269563-269565-269567-269569-269571-269573"/>
			<link refId="38573-37996"/>
			<link refId="38154-38152-38150-38148"/>
			<link refId="38155-38157-38159"/>
			<link refId="38160-38158-38156"/>
			<link refId="194997-194999"/>
			<link refId="336500-336502-336504-336506-336508-86585-86587"/>
			<link refId="477169-393981"/>
			<link refId="152552-152550-152548-152546-152544-152542-152540-152538-152536-152534-152532-152383-424690-424688"/>
			<link refId="320727-456964-456962"/>
			<link refId="72411-72413-72415-72417-72419-72421-72423-72425-72427-72429-72431-72433-72435-72437"/>
			<link refId="456961-456963-320726"/>
			<link refId="168735-168736"/>
			<link refId="33624-33625-33626-33627-33628"/>
			<link refId="500721-500722-500723-500724-500725-500726-500727"/>
			<link refId="33620-33621-33622-33623"/>
			<link refId="109820-109821-109822"/>
			<link refId="109776-109777"/>
			<link refId="402589-402590"/>
			<link refId="43252"/>
			<link refId="273818-273819-273820-273821-273822-273823-273824-273825-273826-273827"/>
			<link refId="441387-441388-441389-441390-441391-303539-303568-303569-303570-303571-303572-380141-380142-380143-398180-398181-348100-348101-348102-348103-348104-348105"/>
			<link refId="267925-267927-267929-267931-267933-267935-216181-215500-215502-215504-215506-215508-215510-215512-215514-215516-215518-215520"/>
			<link refId="162631-162633-162635-162637-162639-162641-162643-162645-162647-162649-162651-162653-162655-162657"/>
			<link refId="239458-239456-239454-239452-239450-56260-56312-56310-56308-56306-235106-274123-274121-274119"/>
			<link refId="193839-193837-193835-193833-193831-193829-193827-193825-193823-193821-193819-193817-193815-193813-193811-193809-193807"/>
			<link refId="292431-292391-275905-275903-275901-275899-275897-275895"/>
			<link refId="275883-275881-275879-275877-275875-275873-275871-276371-320956-320954-320952-320950-320948-320946"/>
			<link refId="275894-275896-275898-275900-275902-275904-292390-292430"/>
			<link refId="218325-218327-218329-218331-218333-218335-218337-218339"/>
			<link refId="157819-157817-157815-157813-157811-157809-157807-157805"/>
			<link refId="244637-244638-244639-244640-244641-244642-244643-244644-244645-244646-244647"/>
			<link refId="434366-434367-434368-434369-434370-434371-434372-434373-434374-434375-434376-434377"/>
			<link refId="11181-11179-11177-11175-11173-11171-11169-11167-11165-11163-11161-11159-11157-11155-11153-11151-11149-11147-11145-11143-11139-11137-11126-11124-11095-11093-11091-494175-494173-494171-494169-494167-494165-493581-493571-493572-493573-493574-493550-493548-493546-493544"/>
			<link refId="493543-493545-493547-493549-493575-493576-493577-493578-493579-493580-494164-494166-494168-494170-494172-494174-11090-11092-11094-11123-11125-11136-11138-11142-11144-11146-11148-11150-11152-11154-11156-11158-11160-11162-11164-11166-11168-11170-11172-11174-11176-11178-11180"/>
			<link refId="4572-4570-4568-4566-4564-4562-4560-4558-4532-4530-4528-4526"/>
			<link refId="188631-188633-188635-188637-188639-188641-188643-188645"/>
			<link refId="188698-188688-188686"/>
			<link refId="188684-188682-188680-482295-482293-482291-482289"/>
			<link refId="188685-188687-188697"/>
			<link refId="300318-300320-300322-300324-300326-300328-300330-300332-300334-300336-300338-300340"/>
			<link refId="244725-244723-244721-244719-244717-244715-244713-244711-455712-455732-455730-455728-455726-455724-455722-455720-455718-455716-455714"/>
			<link refId="334004-334006-334008-334010-334012-334014-334016-334018-334020-334022-334024-334026-334028-334030"/>
			<link refId="265736-265738-265740-265742-265744-265746-265748-265750-265752-265754-213461-213408-213410-213412"/>
			<link refId="351061-351062"/>
			<link refId="351063-351064-351065-351066-351067"/>
			<link refId="118349-118351-118353-118355-118357-118359-118325-118323-118321-118319-118317"/>
			<link refId="17964-17962-17960-17958-17956-17954-17952-17950-17948-17946-17944-17942-17940-17938-17936-17934-17932-17930-17928-17988-17989-17990-17991-17992-17993-17994-17995-17996-17997-17998-17999-17985-17983-17981-17979"/>
			<link refId="316795-316796"/>
			<link refId="281824-281826-120751-120753-120755-120757-120759-120761-120763-296097-296095-296093-296091-296089-296087-296085-296083-296081-296079-258209"/>
			<link refId="118422"/>
			<link refId="325084-325082-325080-325078-325076"/>
			<link refId="321379-321380-321381-321382-321383"/>
			<link refId="325075-325077-325079-325081-325083"/>
			<link refId="119357-119355"/>
			<link refId="119358"/>
			<link refId="289576-289574"/>
			<link refId="465223-465221"/>
			<link refId="289577-289579-289581-289583-289585-289587-289589-289591-289593-289595-289597-460195-460218-494541-494539-494537-494535-494533-494531-185049-185047"/>
			<link refId="342716"/>
			<link refId="292767-292769"/>
			<link refId="292859-292860-292861"/>
			<link refId="321394-321395"/>
			<link refId="292772"/>
			<link refId="185050-185052-185054-185056"/>
			<link refId="185046-185048-494530-494532-494534-494536-494538-494540-460217-460194-289598-289596-289594-289592-289590-289588-289586-289584-289582-289580-289578"/>
			<link refId="312453-312455-312457-312459-312461-312463-312465-185166-185168"/>
			<link refId="318799-318800-318801-318802-318803-318804-318805-318806-318807-318808-318809"/>
			<link refId="60408-60406-60404-61009-283269-283267-283265-283263-283261-283259-283257-283255"/>
			<link refId="82591-82589-82587-82585-82583"/>
			<link refId="82552-82553-82554-82555"/>
			<link refId="185169-185167-312466-312464-312462-312460-312458-312456-312454"/>
			<link refId="155876-155877"/>
			<link refId="107423-107424-107425-107426-107427-107428-107429"/>
			<link refId="327544-327545-327546-327547-327548-327795"/>
			<link refId="342280-342278-489186-489184-489182-489180-489178-489176-489174-489172-489170-489168-489166-489164-489162-489160-489158-489156-489154-238915"/>
			<link refId="259785-259786"/>
			<link refId="31352-31353-31354-31355-31356-31357-31358"/>
			<link refId="399722-399723-399769-399770-399771-399772-399773"/>
			<link refId="139605-139607-342273-342275-163848-163850-50603-50604-50605-50606-50607-50608-50609-50610-50611-295801-295803-295805-295807-295809"/>
			<link refId="475370-475368-475682-253849-253847"/>
			<link refId="253846-253848-475681-475367-475369"/>
			<link refId="68995-68993"/>
			<link refId="68893-68891-68889-68887-68885-68883-68881-68879"/>
			<link refId="68894-68896-68898-68900"/>
			<link refId="69025-69023-69021-69019-69017-69015-69562-139007-139005-139003-139001-138999-138997-138995-138993-138991"/>
			<link refId="68874-68876"/>
			<link refId="423190-423192-88857-88883-88885"/>
			<link refId="429259-429257-429255-430260-253043-253041"/>
			<link refId="429754-429752-429750-429748"/>
			<link refId="429755-429757-429759-429761-424480"/>
			<link refId="424527-424529-424531-424533-424535"/>
			<link refId="424526-424524-424522-424520-424518-424516"/>
			<link refId="344290-344292-344294"/>
			<link refId="344289-344287"/>
			<link refId="354099-354101-354103-354105-354107-354109-354111-354113-354115-354117-390130-390132-390134-390136-390138"/>
			<link refId="344295-344293-344291"/>
			<link refId="122530-122532-122534-122536-122538-122540-122542-122544-122546-122548"/>
			<link refId="122507-122505-122503-122501-122499-122497-122495-122493-122491-122489-122487-122485-122483-122481-122479-122477"/>
			<link refId="122476-122478-122480-122482-122484-122486-122488-122490-122492-122494-122496-122498-122500-122502-122504-122506"/>
			<link refId="122475-122473-122471-122469-122467-122465-122463-122461-122459-122457-122455-122447-787"/>
			<link refId="259565-259563-259561-259559-259557-259555"/>
			<link refId="259566-259568-259570-259572-259574-259576-259578-259580-259582"/>
			<link refId="490536-490538-490540-490542-490544-490546-490548-490550-490552-490554-490556-490558-490560-490562-490564-490566-490568-490570"/>
			<link refId="490535-490533-490531-490529-490527-490525-490523-490521-490519-490517-490515-490513-490511-490509-490507-490505-490503-490501-490499"/>
			<link refId="490881-490879-490877-490875-490873-490871-490869-490867-490865-490863-490861-490859-490857-490855-490853-490851-490849-490847-490845-490843-490841-490839-490837"/>
			<link refId="490753-490751-490749-490747-490745-490743-490741-490739-490737-490735-490733-490731-490729-490727-490725-490723-490721-490719-490717-490715-490713-490711-490709-490707-490705"/>
			<link refId="259584-259586-259588-259590-259592-259594-259596-259598-259600-259602"/>
			<link refId="259583-259581-259579-259577-259575-259573-259571-259569-259567"/>
			<link refId="259604-259606-259608-259610-259612-259614-259616-259618-259620-259622-490460-490464-490466-490468-490470-490472-490474-490476-490478"/>
			<link refId="259603-259601-259599-259597-259595-259593-259591-259589-259587-259585"/>
			<link refId="96326-96328-96330-96332-96334-96336-96338-96340-96342-96344-96346-96348"/>
			<link refId="96325-96323-96321-96319-96317-96315-96313-96311-96309-96307-96305-96303-96301-96299-96297"/>
			<link refId="490498-490500-490502-490504-490506-490508-490510-490512-490514-490516-490518-490520-490522-490524-490526-490528-490530-490532-490534"/>
			<link refId="37297-37295-424724-424722-424720-424718-424716-422195-422193-422191-422189-422187-422185-422183-422181-424799-424735-421907"/>
			<link refId="37298-37300-37302-37304-37306-37308-37310-37312-37314-37316-37318-422197"/>
			<link refId="490479-490477-490475-490473-490471-490469-490467-490465-490461-259623-259621-259619-259617-259615-259613-259611-259609-259607-259605"/>
			<link refId="96349-96347-96345-96343-96341-96339-96337-96335-96333-96331-96329-96327"/>
			<link refId="96350-96352-96354-96356-96358-96360-96362"/>
			<link refId="269051-269049-269047-269045-269043-269041-88487"/>
			<link refId="462804-462802"/>
			<link refId="102140-102138-102136-101371-183545-183543"/>
			<link refId="32922-32923-32924-32925"/>
			<link refId="272868-272869-272870"/>
			<link refId="109901-109902-109903-416790-338774-338775-338776-338777"/>
			<link refId="306338"/>
			<link refId="338778-338779-423775-423816-423754-424341-423913-424003-420642-420877-418106-418081"/>
			<link refId="314451-314452-314453-314454-314455-314456-314457-314458-314459-314460-314461-314462-314463-314464-314465-314466-402613-402558-402559"/>
			<link refId="471038-471040-248172-248170-248168-248166-248164-248162-248160-248158"/>
			<link refId="43692-484427"/>
			<link refId="92108-92110-94155-94103-94105"/>
			<link refId="94106-94104-94156-92111-92109"/>
			<link refId="30734-30736-30738-30740-30742-30744-30746-30748-30750-30752-30754-30756-248437-248435"/>
			<link refId="99046-99047-99048-99049-99050-99051-99052-103715-103572-103573-103574-103575"/>
			<link refId="103682-103683-103684-103685-103563-103706-103707-103708-103709-103710-103711-103712-103713-103714"/>
			<link refId="105167-105168-105169-105170-105171-105172-105173-105174"/>
			<link refId="287533-287534-287535-287536-287537-287538-287539-287540-287541"/>
			<link refId="106871-106872-106873-106874-106875-106876-106877"/>
			<link refId="110131-110132-110133-110134-110135-110136-110137-110138-110139-110140"/>
			<link refId="293461-293462-293463-293464-293465-293466-293467"/>
			<link refId="20844-20842-20840-20838-20836-20834-20832-20830-20828-20826-20824-20822-20820-20818-20816-20814-20812-137139-137137-137135-137133-137131-137129-137127-137125-137123-137121"/>
			<link refId="345981-345983-345985-345987-345989-345991-345993-345995-345997-345999-346001-346003-346005-346007-197854-197829"/>
			<link refId="203667"/>
			<link refId="203502"/>
			<link refId="203668"/>
			<link refId="203503-203505-203507-203509-203511-203513-203515-203517-203519-203521-203523-203525"/>
			<link refId="203526-203524-203522-203520-203518-203516-203514-203512-203510-203508-203506-203504"/>
			<link refId="416264-416265-416266-416267-416268"/>
			<link refId="158963-434434-434435-434436-434437-434438-434439-434440"/>
			<link refId="501968-434461-434462-100645-100646"/>
			<link refId="158987-158988-158989-158990-158991"/>
			<link refId="158980-158981-158982-158983-158984-158985-158986"/>
			<link refId="317516"/>
			<link refId="429390-429392-429394-429396-429398-429400-429402-429404-429406-429408-429410-429412-429414"/>
			<link refId="429489-426360-426358-426356-426354-426352-426350-426348-426346-426344-426342-426340-426399"/>
			<link refId="267953-267957-267959-267961-267963-106116-106080-106082-106084"/>
			<link refId="429415-429413-429411-429409-429407-429405-429403-429401-429399-429397-429395-429393-429391"/>
			<link refId="271125-271123-271121-271119-271117-271115-271113-271111-492877-492875"/>
			<link refId="286123-286125-286127-286129-286131-286133-286135-286137-342774-342742"/>
			<link refId="342743-342775-286138-286136-286134-286132-286130-286128-286126-286124"/>
			<link refId="332009-332010-332011-332012-332013-332014-332015-332016-332017"/>
			<link refId="332000"/>
			<link refId="354801-354803-354805-354807-354809-354811-354813-354815-354817-354819-354821-354823-354825-354827-354829-354831-354833"/>
			<link refId="348106-348107-348108-348109-348110-348111-348112-348113-396421-396476"/>
			<link refId="160737-160738-179263-179243-179244-179245-179246-179247-179248-150140"/>
			<link refId="128287-128289-128291-128293-128295-128297-128299"/>
			<link refId="268342-268344-268346-268348-268350-268352-268354"/>
			<link refId="373206-373207-373208"/>
			<link refId="442433-373216-373218"/>
			<link refId="268355-268353-268351-268349-268347-268345-268343"/>
			<link refId="103402"/>
			<link refId="192883-192881-192879-192877-192875-192873-192871-192869-192867-192865-192863-192861-192859-192857-192855-192853-192851-192849-192847-192845"/>
			<link refId="96521-96522-96511-96512-96513-96514-96515-96516-96440-96442-96444-96446-423252-423254-423256-423258-423260-423262-423264-423266-423268-423270-423272-252909-252911"/>
			<link refId="324796-324797-396432-396433-396434-396435-396436-396437-396438-396439-396440"/>
			<link refId="396441-396442-396443-396444-396445-396446-396447-396448-396449-398241-398242-398243-380168"/>
			<link refId="110478-38385-38386-38387"/>
			<link refId="110488-110464"/>
			<link refId="110409-110410-110411-110412-110413-110414"/>
			<link refId="110467-26758-26759-26760-110605"/>
			<link refId="110422-110423-110424-110425-110426-110427-110428"/>
			<link refId="41418-41419-41420"/>
			<link refId="496572-269792-269826-269827-269828-269829"/>
			<link refId="110415-110416-110417-110418-110419-110420-110421"/>
			<link refId="110445"/>
			<link refId="38177-38178-38179-38180-38181-38182-38183-38184"/>
			<link refId="496641-396610-396611-269830-269801"/>
			<link refId="37548-37549"/>
			<link refId="269802-269803-269804"/>
			<link refId="455277-455279-455281-455283-455285-455287-455289-455291-455293-455295-455297-455299-455301-455303-455305-455307"/>
			<link refId="407768-407770-407772-407774-407776-407778-407780-407782-407784-407865-408352"/>
			<link refId="439433"/>
			<link refId="3771-3772-499802-499817-499818-499819-499820-499821-499822-499823-499824-499825-12580-12581-12582-12583-12584-12585-12586"/>
			<link refId="128359-128361-128363-128365-128367-128369-128371-128373-128375-128377-128379-128381-128383-128385-128387-128389-128391-128393-128395-128397-128399-128401-128403"/>
			<link refId="128358-128356-128354-128352-128350-128348-128346-128344-128342-128340-128338-128336-128334-128332-128330-128328-128326-128324-128322-128320-128318-128316-128314-128312-128310-128308-128306-128304-128302"/>
			<link refId="128300-128298-128296-128294-128292-128290-128288"/>
			<link refId="128301-128303-128305-128307-128309-128311-128313-128315-128317-128319-128321-128323-128325-128327-128329-128331-128333-128335-128337-128339-128341-128343-128345-128347-128349-128351-128353-128355-128357"/>
			<link refId="128426-128424-128422-128420-128418-128416-128414-128412-128410-128408-128406"/>
			<link refId="128405-128407-128409-128411-128413-128415-128417-128419-128421-128423-128425"/>
			<link refId="128404-128402-128400-128398-128396-128394-128392-128390-128388-128386-128384-128382-128380-128378-128376-128374-128372-128370-128368-128366-128364-128362-128360"/>
			<link refId="77495-77496-77497-77498-77499-77500-77501-77502-77503-77504-77505"/>
			<link refId="381047-381048-381049-416791-419565-419566-419567-419568-419569-419570"/>
			<link refId="357291-357293-357295-357297-357299-357301-357303-357305-357307-357309-411299-411301-411303-411305-411307"/>
			<link refId="243966-243967-243968-423165-423196-423197-423198-423199-423200-423201"/>
			<link refId="161672-161670-161668-161666-161664-161662-161660-161658-161656-161654-161489-481245-481243-481241-188146-188144-188142-188140-188138-188136-188134-188132-188130-188151-188149"/>
			<link refId="204694-204696-204698-204700-204702-204704-204706-204708-204710-204712"/>
			<link refId="85948-85950-238004-237907-237909-237911-237913-237915-237917"/>
			<link refId="237918-237916-237914-237912-237910-237908-238005-85951-85949"/>
			<link refId="482986-482988-482990-482992-482994-482996-482998-483000"/>
			<link refId="411344-411342-411340-411338-411336-411334-411332-411330-411328-411326-411324-411322-411320-411318-411316-411314-411312-411310"/>
			<link refId="411381-411383-411385-411387-411389-411391-411393-411395-411397-411399-411401-411403-411405-171330-171698-171700-171702-171704"/>
			<link refId="171705-171703-171701-171699-171331-411406-411404-411402-411400-411398-411396-411394-411392-411390-411388-411386-411384-411382"/>
			<link refId="171706-171708-171710-171712-171714-171716-171718-171720-171722-171724-171726-171728-171730-171732-171734-171736-171738-171740-171742-171744-171746-171748-171750-171752-171754-171756"/>
			<link refId="171259-171257-171255-171253-171251-171249-171247-171343-171341-171763-171761-171759"/>
			<link refId="207825-207827-207829-207831-207833-207835-207837-207839-207841-207843-207845-207847-207849-207851-207853-207855-207857-207859-207861-207863-207865-207867-207869-207871-207873"/>
			<link refId="16232-16230-15492-207888-207886-207884-207882-207880-207878-207876"/>
			<link refId="329811-329812-329813-329814-329815-329816-329817-329818-329819-329820-329821-329822"/>
			<link refId="118423"/>
			<link refId="482452-482453-482454-482455-482456-482457-482458"/>
			<link refId="482459-482460"/>
			<link refId="120770"/>
			<link refId="321373-321374-321375-321376-321377-321378"/>
			<link refId="120771"/>
			<link refId="332730-332138-332139-332140-332141-332142-332143-332144"/>
			<link refId="333756-333757-333758-333759-333760-333761-333762-374102"/>
			<link refId="11822-11823"/>
			<link refId="486982-486983-486984-486985"/>
			<link refId="133332-133333"/>
			<link refId="185185"/>
			<link refId="486998-486999"/>
			<link refId="185191-185192"/>
			<link refId="384263-384264"/>
			<link refId="297762-297763-297764-297765-297766-297767-297768-297769-297770-297771"/>
			<link refId="486977-486978-486979-486980-486981"/>
			<link refId="27874-27875"/>
			<link refId="292862-292863"/>
			<link refId="383733-383734-383735"/>
			<link refId="487120-487121-487122"/>
			<link refId="292771"/>
			<link refId="292770-292768"/>
			<link refId="60930-60931-60932-60933-60934-60935-60936-60937-60938-60939-60940-60941-60942-60943-60944-60945-60946"/>
			<link refId="185434-185435-185436"/>
			<link refId="486950-486951-486952-486953-486954"/>
			<link refId="463430-463431-463432"/>
			<link refId="321370-321371-480536-480537-480538-480539-480540-480541-480542-480543-480544-480545-480546-480547-480548-480549"/>
			<link refId="45962-45963-45964-45965"/>
			<link refId="45939"/>
			<link refId="45951-45952"/>
			<link refId="45957-45958-45959"/>
			<link refId="45960-45961"/>
			<link refId="405093"/>
			<link refId="317621-175055-175056-175057-175058"/>
			<link refId="317617-317618-317619"/>
			<link refId="288787"/>
			<link refId="206058-206059"/>
			<link refId="226106-226107-226108"/>
			<link refId="288786"/>
			<link refId="278659-278660-278661-278662-278663-278664-278665-278666-278667-278668-278669"/>
			<link refId="293542"/>
			<link refId="293323-293324-293325-293326-293327-293328-293329-293330-293331"/>
			<link refId="293310-293311"/>
			<link refId="293554-293555-293556-293557"/>
			<link refId="298871-298872-298873-298874-298875-298876-298877-298878-298879-298880-298881-298882-298883-298884-298885"/>
			<link refId="298859"/>
			<link refId="293301-293302-293303-293304-293305-293306-293307-293308-293309"/>
			<link refId="298860"/>
			<link refId="298864-298865"/>
			<link refId="293313-293314"/>
			<link refId="293322"/>
			<link refId="298866-298867-298868-298869"/>
			<link refId="293399-293400-293401-293402-293403"/>
			<link refId="293543-293544-293545-293546-293547-293548"/>
			<link refId="13498"/>
			<link refId="293315-293316-293317-293318-293319-293320-293321"/>
			<link refId="321710"/>
			<link refId="197936-197937-197938-197939-197940-197941-197942-197943-197944-197945-197946-197947-197948"/>
			<link refId="83653-83654-83655-83656-83657-83658-83659-83660-83661-83662-83663-83664-83665"/>
			<link refId="198017-198018-198019-198020-380567-380568-106182-248753-248754-248755-248756-248757-248758-248759-248760-248761-248762-248763-248764"/>
			<link refId="321711-321712"/>
			<link refId="198015"/>
			<link refId="321619-321620-321621-321622-321623"/>
			<link refId="198013-198014"/>
			<link refId="415667-415668-415669-415670-415671-415672-415673-415674-415675-415676-415677-415678-415679"/>
			<link refId="6457-415723-453104-453105-453106-453107-453108-453109-453110-453111-453112-453113-453114-453115"/>
			<link refId="314914"/>
			<link refId="431123-431124-431125"/>
			<link refId="59892-59893-59894-59895-59896-59897-59898-59899-59900-59901-59902"/>
			<link refId="314913"/>
			<link refId="130637-130638-130639-130640-130641-130642-431108-431089-357601-357602-357603-357604"/>
			<link refId="402066-402068-402070-402072-402074-402076-402078-402080-402082-402084-402086-402088-494128-494130-494132-494134-494136-494138-494140-485333-485335-485337-485339-485341-485343"/>
			<link refId="485344-485342-485340-485338-485336-485334-494141-494139-494137-494135-494133-494131-494129-402089-402087-402085-402083-402081-402079-402077-402075-402073-402071-402069-402067"/>
			<link refId="258092-258093-258094-258095-171898-171899-171900-171901-171902-171903-171904-171905-171906-171907-171908-171909-171910-257640-257641-257996-257997"/>
			<link refId="296237"/>
			<link refId="494024"/>
			<link refId="296218-296219"/>