<?xml version="1.0" ?>
<!DOCTYPE plans SYSTEM "http://www.matsim.org/files/dtd/plans_v4.dtd">
<plans>
<!-- ====================================================================== -->

	<person id="10000.1">
		<plan>
			<act type="EvacZone" x="777658" y="5743903" end_time="15:00:00" />
			<leg mode="car" />
			<act type="end" x="790772" y="5752462" end_time="00:00:00" />
 		</plan>
 	</person>

	<person id="10000.2">
		<plan>
			<act type="EvacZone" x="777658" y="5743903" end_time="15:00:00" />
			<leg mode="car" />
			<act type="end" x="790772" y="5752462" end_time="00:00:00" />
 		</plan>
 	</person>

	<person id="10000.3">
		<plan>
			<act type="EvacZone" x="777658" y="5743903" end_time="15:00:00" />
			<leg mode="car" />
			<act type="end" x="790772" y="5752462" end_time="00:00:00" />
 		</plan>
 	</person>

	<person id="10000.4">
		<plan>
			<act type="EvacZone" x="777658" y="5743903" end_time="15:14:56" />
			<leg mode="car" />
			<act type="end" x="790772" y="5752462" end_time="00:00:00" />
 		</plan>
 	</person>

	<person id="10001.1">
		<plan>
			<act type="EvacZone" x="777548" y="5744612" end_time="15:00:26" />
			<leg mode="car" />
			<act type="end" x="790772" y="5752462" end_time="00:00:00" />
 		</plan>
 	</person>

	<person id="10001.2">
		<plan>
			<act type="EvacZone" x="777548" y="5744612" end_time="15:00:07" />
			<leg mode="car" />
			<act type="end" x="790772" y="5752462" end_time="00:00:00" />
 		</plan>
 	</person>

	<person id="10001.3">
		<plan>
			<act type="EvacZone" x="777548" y="5744612" end_time="15:00:00" />
			<leg mode="car" />
			<act type="end" x="790772" y="5752462" end_time="00:00:00" />
 		</plan>
 	</person>

	<person id="10001.4">
		<plan>
			<act type="EvacZone" x="777548" y="5744612" end_time="15:00:00" />
			<leg mode="car" />
			<act type="end" x="790772" y="5752462" end_time="00:00:00" />
 		</plan>
 	</person>

	<person id="10002.1">
		<plan>
			<act type="EvacZone" x="777508" y="5742708" end_time="15:00:00" />
			<leg mode="car" />
			<act type="end" x="790772" y="5752462" end_time="00:00:00" />
 		</plan>
 	</person>

	<person id="10002.2">
		<plan>
			<act type="EvacZone" x="777508" y="5742708" end_time="15:03:55" />
			<leg mode="car" />
			<act type="end" x="790772" y="5752462" end_time="00:00:00" />
 		</plan>
 	</person>

	<person id="10002.3">
		<plan>
			<act type="EvacZone" x="777508" y="5742708" end_time="15:00:00" />
			<leg mode="car" />
			<act type="end" x="790772" y="5752462" end_time="00:00:00" />
 		</plan>
 	</person>

	<person id="10002.4">
		<plan>
			<act type="EvacZone" x="777508" y="5742708" end_time="15:00:00" />
			<leg mode="car" />
			<act type="end" x="790772" y="5752462" end_time="00:00:00" />
 		</plan>
 	</person>

	<person id="10003.1">
		<plan>
			<act type="EvacZone" x="776327" y="5743550" end_time="15:00:00" />
			<leg mode="car" />
			<act type="end" x="790772" y="5752462" end_time="00:00:00" />
 		</plan>
 	</person>

	<person id="10003.2">
		<plan>
			<act type="EvacZone" x="776327" y="5743550" end_time="15:00:00" />
			<leg mode="car" />
			<act type="end" x="790772" y="5752462" end_time="00:00:00" />
 		</plan>
 	</person>

	<person id="10003.3">
		<plan>
			<act type="EvacZone" x="776327" y="5743550" end_time="15:00:00" />
			<leg mode="car" />
			<act type="end" x="790772" y="5752462" end_time="00:00:00" />
 		</plan>
 	</person>

	<person id="10003.4">
		<plan>
			<act type="EvacZone" x="776327" y="5743550" end_time="15:00:00" />
			<leg mode="car" />
			<act type="end" x="790772" y="5752462" end_time="00:00:00" />
 		</plan>
 	</person>

	<person id="10004.1">
		<plan>
			<act type="EvacZone" x="776814" y="5743035" end_time="15:00:01" />
			<leg mode="car" />
			<act type="end" x="790772" y="5752462" end_time="00:00:00" />
 		</plan>
 	</person>

	<person id="10004.2">
		<plan>
			<act type="EvacZone" x="778483" y="5744475" end_time="15:00:00" />
			<leg mode="car" />
			<act type="end" x="790772" y="5752462" end_time="00:00:00" />
 		</plan>
 	</person>

	<person id="10004.3">
		<plan>
			<act type="EvacZone" x="776814" y="5743035" end_time="15:00:00" />
			<leg mode="car" />
			<act type="end" x="790772" y="5752462" end_time="00:00:00" />
 		</plan>
 	</person>

	<person id="10004.4">
		<plan>
			<act type="EvacZone" x="776814" y="5743035" end_time="15:00:00" />
			<leg mode="car" />
			<act type="end" x="790772" y="5752462" end_time="00:00:00" />
 		</plan>
 	</person>

	<person id="10005.1">
		<plan>
			<act type="EvacZone" x="776850" y="5742664" end_time="15:00:00" />
			<leg mode="car" />
			<act type="end" x="790772" y="5752462" end_time="00:00:00" />
 		</plan>
 	</person>

	<person id="10005.2">
		<plan>
			<act type="EvacZone" x="776850" y="5742664" end_time="15:00:00" />
			<leg mode="car" />
			<act type="end" x="790772" y="5752462" end_time="00:00:00" />
 		</plan>
 	</person>

	<person id="10005.3">
		<plan>
			<act type="EvacZone" x="776850" y="5742664" end_time="15:00:00" />
			<leg mode="car" />
			<act type="end" x="790772" y="5752462" end_time="00:00:00" />
 		</plan>
 	</person>

	<person id="10006.1">
		<plan>
			<act type="EvacZone" x="776933" y="5743589" end_time="15:00:00" />
			<leg mode="car" />
			<act type="end" x="790772" y="5752462" end_time="00:00:00" />
 		</plan>
 	</person>

	<person id="10006.2">
		<plan>
			<act type="EvacZone" x="776933" y="5743589" end_time="15:00:00" />
			<leg mode="car" />
			<act type="end" x="790772" y="5752462" end_time="00:00:00" />
 		</plan>
 	</person>

	<person id="10006.3">
		<plan>
			<act type="EvacZone" x="776933" y="5743589" end_time="15:00:00" />
			<leg mode="car" />
			<act type="end" x="790772" y="5752462" end_time="00:00:00" />
 		</plan>
 	</person>

	<person id="10006.4">
		<plan>
			<act type="EvacZone" x="776933" y="5743589" end_time="15:00:01" />
			<leg mode="car" />
			<act type="end" x="790772" y="5752462" end_time="00:00:00" />
 		</plan>
 	</person>

	<person id="10007.2">
		<plan>
			<act type="EvacZone" x="776710" y="5742443" end_time="15:00:00" />
			<leg mode="car" />
			<act type="end" x="790772" y="5752462" end_time="00:00:00" />
 		</plan>
 	</person>

	<person id="10007.3">
		<plan>
			<act type="EvacZone" x="776710" y="5742443" end_time="15:00:00" />
			<leg mode="car" />
			<act type="end" x="790772" y="5752462" end_time="00:00:00" />
 		</plan>
 	</person>

	<person id="10007.4">
		<plan>
			<act type="EvacZone" x="778503" y="5744483" end_time="15:00:00" />
			<leg mode="car" />
			<act type="end" x="790772" y="5752462" end_time="00:00:00" />
 		</plan>
 	</person>

	<person id="10008.1">
		<plan>
			<act type="EvacZone" x="777209" y="5744555" end_time="15:00:00" />
			<leg mode="car" />
			<act type="end" x="790772" y="5752462" end_time="00:00:00" />
 		</plan>
 	</person>

	<person id="10008.2">
		<plan>
			<act type="EvacZone" x="777209" y="5744555" end_time="15:00:00" />
			<leg mode="car" />
			<act type="end" x="790772" y="5752462" end_time="00:00:00" />
 		</plan>
 	</person>

	<person id="10008.3">
		<plan>
			<act type="EvacZone" x="777209" y="5744555" end_time="15:00:00" />
			<leg mode="car" />
			<act type="end" x="790772" y="5752462" end_time="00:00:00" />
 		</plan>
 	</person>

	<person id="10008.4">
		<plan>
			<act type="EvacZone" x="777209" y="5744555" end_time="15:00:00" />
			<leg mode="car" />
			<act type="end" x="790772" y="5752462" end_time="00:00:00" />
 		</plan>
 	</person>

	<person id="10009.2">
		<plan>
			<act type="EvacZone" x="777658" y="5743903" end_time="15:00:00" />
			<leg mode="car" />
			<act type="end" x="790772" y="5752462" end_time="00:00:00" />
 		</plan>
 	</person>

	<person id="10009.3">
		<plan>
			<act type="EvacZone" x="777658" y="5743903" end_time="15:00:00" />
			<leg mode="car" />
			<act type="end" x="790772" y="5752462" end_time="00:00:00" />
 		</plan>
 	</person>

	<person id="10009.4">
		<plan>
			<act type="EvacZone" x="777658" y="5743903" end_time="15:00:00" />
			<leg mode="car" />
			<act type="end" x="790772" y="5752462" end_time="00:00:00" />
 		</plan>
 	</person>

	<person id="10010.3">
		<plan>
			<act type="EvacZone" x="777599" y="5744804" end_time="15:00:00" />
			<leg mode="car" />
			<act type="end" x="790772" y="5752462" end_time="00:00:00" />
 		</plan>
 	</person>

	<person id="10010.4">
		<plan>
			<act type="EvacZone" x="777599" y="5744804" end_time="15:00:00" />
			<leg mode="car" />
			<act type="end" x="790772" y="5752462" end_time="00:00:00" />
 		</plan>
 	</person>

	<person id="10011.1">
		<plan>
			<act type="EvacZone" x="777540" y="5743393" end_time="15:00:00" />
			<leg mode="car" />
			<act type="end" x="790772" y="5752462" end_time="00:00:00" />
 		</plan>
 	</person>

	<person id="10011.3">
		<plan>
			<act type="EvacZone" x="777540" y="5743393" end_time="15:00:00" />
			<leg mode="car" />
			<act type="end" x="790772" y="5752462" end_time="00:00:00" />
 		</plan>
 	</person>

	<person id="10011.4">
		<plan>
			<act type="EvacZone" x="777540" y="5743393" end_time="15:00:00" />
			<leg mode="car" />
			<act type="end" x="790772" y="5752462" end_time="00:00:00" />
 		</plan>
 	</person>

	<person id="10012.1">
		<plan>
			<act type="EvacZone" x="777302" y="5744356" end_time="15:00:00" />
			<leg mode="car" />
			<act type="end" x="790772" y="5752462" end_time="00:00:00" />
 		</plan>
 	</person>

	<person id="10012.2">
		<plan>
			<act type="EvacZone" x="777302" y="5744356" end_time="15:00:00" />
			<leg mode="car" />
			<act type="end" x="790772" y="5752462" end_time="00:00:00" />
 		</plan>
 	</person>

	<person id="10012.3">
		<plan>
			<act type="EvacZone" x="777302" y="5744356" end_time="15:01:40" />
			<leg mode="car" />
			<act type="end" x="790772" y="5752462" end_time="00:00:00" />
 		</plan>
 	</person>

	<person id="10012.4">
		<plan>
			<act type="EvacZone" x="777302" y="5744356" end_time="15:00:00" />
			<leg mode="car" />
			<act type="end" x="790772" y="5752462" end_time="00:00:00" />
 		</plan>
 	</person>

	<person id="10013.2">
		<plan>
			<act type="EvacZone" x="776327" y="5743550" end_time="15:00:00" />
			<leg mode="car" />
			<act type="end" x="790772" y="5752462" end_time="00:00:00" />
 		</plan>
 	</person>

	<person id="10013.3">
		<plan>
			<act type="EvacZone" x="776327" y="5743550" end_time="15:00:00" />
			<leg mode="car" />
			<act type="end" x="790772" y="5752462" end_time="00:00:00" />
 		</plan>
 	</person>

	<person id="10013.4">
		<plan>
			<act type="EvacZone" x="776327" y="5743550" end_time="15:00:00" />
			<leg mode="car" />
			<act type="end" x="790772" y="5752462" end_time="00:00:00" />
 		</plan>
 	</person>

	<person id="10014.1">
		<plan>
			<act type="EvacZone" x="777046" y="5742407" end_time="15:00:00" />
			<leg mode="car" />
			<act type="end" x="790772" y="5752462" end_time="00:00:00" />
 		</plan>
 	</person>

	<person id="10014.2">
		<plan>
			<act type="EvacZone" x="777046" y="5742407" end_time="15:00:00" />
			<leg mode="car" />
			<act type="end" x="790772" y="5752462" end_time="00:00:00" />
 		</plan>
 	</person>

	<person id="10014.3">
		<plan>
			<act type="EvacZone" x="777046" y="5742407" end_time="15:00:00" />
			<leg mode="car" />
			<act type="end" x="790772" y="5752462" end_time="00:00:00" />
 		</plan>
 	</person>

	<person id="10014.4">
		<plan>
			<act type="EvacZone" x="777046" y="5742407" end_time="15:00:00" />
			<leg mode="car" />
			<act type="end" x="790772" y="5752462" end_time="00:00:00" />
 		</plan>
 	</person>

	<person id="10015.1">
		<plan>
			<act type="EvacZone" x="776814" y="5743035" end_time="15:07:39" />
			<leg mode="car" />
			<act type="end" x="790772" y="5752462" end_time="00:00:00" />
 		</plan>
 	</person>

	<person id="10015.2">
		<plan>
			<act type="EvacZone" x="776814" y="5743035" end_time="15:00:00" />
			<leg mode="car" />
			<act type="end" x="790772" y="5752462" end_time="00:00:00" />
 		</plan>
 	</person>

	<person id="10015.3">
		<plan>
			<act type="EvacZone" x="776814" y="5743035" end_time="15:00:00" />
			<leg mode="car" />
			<act type="end" x="790772" y="5752462" end_time="00:00:00" />
 		</plan>
 	</person>

	<person id="10016.1">
		<plan>
			<act type="EvacZone" x="776589" y="5743710" end_time="15:00:00" />
			<leg mode="car" />
			<act type="end" x="790772" y="5752462" end_time="00:00:00" />
 		</plan>
 	</person>

	<person id="10016.2">
		<plan>
			<act type="EvacZone" x="776589" y="5743710" end_time="15:00:00" />
			<leg mode="car" />
			<act type="end" x="790772" y="5752462" end_time="00:00:00" />
 		</plan>
 	</person>

	<person id="10016.3">
		<plan>
			<act type="EvacZone" x="776589" y="5743710" end_time="15:00:00" />
			<leg mode="car" />
			<act type="end" x="790772" y="5752462" end_time="00:00:00" />
 		</plan>
 	</person>

	<person id="10017.1">
		<plan>
			<act type="EvacZone" x="776787" y="5743789" end_time="15:00:00" />
			<leg mode="car" />
			<act type="end" x="790772" y="5752462" end_time="00:00:00" />
 		</plan>
 	</person>

	<person id="10017.2">
		<plan>
			<act type="EvacZone" x="776787" y="5743789" end_time="15:00:00" />
			<leg mode="car" />
			<act type="end" x="790772" y="5752462" end_time="00:00:00" />
 		</plan>
 	</person>

	<person id="10017.3">
		<plan>
			<act type="EvacZone" x="776787" y="5743789" end_time="15:00:00" />
			<leg mode="car" />
			<act type="end" x="790772" y="5752462" end_time="00:00:00" />
 		</plan>
 	</person>

	<person id="10017.4">
		<plan>
			<act type="EvacZone" x="776787" y="5743789" end_time="15:00:00" />
			<leg mode="car" />
			<act type="end" x="790772" y="5752462" end_time="00:00:00" />
 		</plan>
 	</person>

	<person id="10018.1">
		<plan>
			<act type="EvacZone" x="777221" y="5743168" end_time="15:00:00" />
			<leg mode="car" />
			<act type="end" x="790772" y="5752462" end_time="00:00:00" />
 		</plan>
 	</person>

	<person id="10018.2">
		<plan>
			<act type="EvacZone" x="777221" y="5743168" end_time="15:00:00" />
			<leg mode="car" />
			<act type="end" x="790772" y="5752462" end_time="00:00:00" />
 		</plan>
 	</person>

	<person id="10018.3">
		<plan>
			<act type="EvacZone" x="777221" y="5743168" end_time="15:00:00" />
			<leg mode="car" />
			<act type="end" x="790772" y="5752462" end_time="00:00:00" />
 		</plan>
 	</person>

	<person id="10019.2">
		<plan>
			<act type="EvacZone" x="777302" y="5744356" end_time="15:00:00" />
			<leg mode="car" />
			<act type="end" x="790772" y="5752462" end_time="00:00:00" />
 		</plan>
 	</person>

	<person id="10019.3">
		<plan>
			<act type="EvacZone" x="777302" y="5744356" end_time="15:00:00" />
			<leg mode="car" />
			<act type="end" x="790772" y="5752462" end_time="00:00:00" />
 		</plan>
 	</person>

	<person id="10019.4">
		<plan>
			<act type="EvacZone" x="777302" y="5744356" end_time="15:00:00" />
			<leg mode="car" />
			<act type="end" x="790772" y="5752462" end_time="00:00:00" />
 		</plan>
 	</person>

	<person id="10020.1">
		<plan>
			<act type="EvacZone" x="777739" y="5744316" end_time="15:00:00" />
			<leg mode="car" />
			<act type="end" x="790772" y="5752462" end_time="00:00:00" />
 		</plan>
 	</person>

	<person id="10020.3">
		<plan>
			<act type="EvacZone" x="777739" y="5744316" end_time="15:00:00" />
			<leg mode="car" />
			<act type="end" x="790772" y="5752462" end_time="00:00:00" />
 		</plan>
 	</person>

	<person id="10021.1">
		<plan>
			<act type="EvacZone" x="777857" y="5743478" end_time="15:00:00" />
			<leg mode="car" />
			<act type="end" x="790772" y="5752462" end_time="00:00:00" />
 		</plan>
 	</person>

	<person id="10021.2">
		<plan>
			<act type="EvacZone" x="777857" y="5743478" end_time="15:00:00" />
			<leg mode="car" />
			<act type="end" x="790772" y="5752462" end_time="00:00:00" />
 		</plan>
 	</person>

	<person id="10021.4">
		<plan>
			<act type="EvacZone" x="777857" y="5743478" end_time="15:00:00" />
			<leg mode="car" />
			<act type="end" x="790772" y="5752462" end_time="00:00:00" />
 		</plan>
 	</person>

	<person id="10022.1">
		<plan>
			<act type="EvacZone" x="776589" y="5743710" end_time="15:00:00" />
			<leg mode="car" />
			<act type="end" x="790772" y="5752462" end_time="00:00:00" />
 		</plan>
 	</person>

	<person id="10022.2">
		<plan>
			<act type="EvacZone" x="778483" y="5744475" end_time="15:00:00" />
			<leg mode="car" />
			<act type="end" x="790772" y="5752462" end_time="00:00:00" />
 		</plan>
 	</person>

	<person id="10022.3">
		<plan>
			<act type="EvacZone" x="776589" y="5743710" end_time="15:00:00" />
			<leg mode="car" />
			<act type="end" x="790772" y="5752462" end_time="00:00:00" />
 		</plan>
 	</person>

	<person id="10022.4">
		<plan>
			<act type="EvacZone" x="776589" y="5743710" end_time="15:00:00" />
			<leg mode="car" />
			<act type="end" x="790772" y="5752462" end_time="00:00:00" />
 		</plan>
 	</person>

	<person id="10023.1">
		<plan>
			<act type="EvacZone" x="776327" y="5743550" end_time="15:00:00" />
			<leg mode="car" />
			<act type="end" x="790772" y="5752462" end_time="00:00:00" />
 		</plan>
 	</person>

	<person id="10023.2">
		<plan>
			<act type="EvacZone" x="776327" y="5743550" end_time="15:00:00" />
			<leg mode="car" />
			<act type="end" x="790772" y="5752462" end_time="00:00:00" />
 		</plan>
 	</person>

	<person id="10023.3">
		<plan>
			<act type="EvacZone" x="778483" y="5744475" end_time="15:00:00" />
			<leg mode="car" />
			<act type="end" x="790772" y="5752462" end_time="00:00:00" />
 		</plan>
 	</person>

	<person id="10023.4">
		<plan>
			<act type="EvacZone" x="776327" y="5743550" end_time="15:00:00" />
			<leg mode="car" />
			<act type="end" x="790772" y="5752462" end_time="00:00:00" />
 		</plan>
 	</person>

	<person id="10024.1">
		<plan>
			<act type="EvacZone" x="776564" y="5744045" end_time="15:00:00" />
			<leg mode="car" />
			<act type="end" x="790772" y="5752462" end_time="00:00:00" />
 		</plan>
 	</person>

	<person id="10024.2">
		<plan>
			<act type="EvacZone" x="776564" y="5744045" end_time="15:00:00" />
			<leg mode="car" />
			<act type="end" x="790772" y="5752462" end_time="00:00:00" />
 		</plan>
 	</person>

	<person id="10024.3">
		<plan>
			<act type="EvacZone" x="778483" y="5744475" end_time="15:00:00" />
			<leg mode="car" />
			<act type="end" x="790772" y="5752462" end_time="00:00:00" />
 		</plan>
 	</person>

	<person id="10024.4">
		<plan>
			<act type="EvacZone" x="776564" y="5744045" end_time="15:00:00" />
			<leg mode="car" />
			<act type="end" x="790772" y="5752462" end_time="00:00:00" />
 		</plan>
 	</person>

	<person id="10025.1">
		<plan>
			<act type="EvacZone" x="776787" y="5743789" end_time="15:00:00" />
			<leg mode="car" />
			<act type="end" x="790772" y="5752462" end_time="00:00:00" />
 		</plan>
 	</person>

	<person id="10025.2">
		<plan>
			<act type="EvacZone" x="778031" y="5744530" end_time="15:00:00" />
			<leg mode="car" />
			<act type="end" x="790772" y="5752462" end_time="00:00:00" />
 		</plan>
 	</person>

	<person id="10025.3">
		<plan>
			<act type="EvacZone" x="776787" y="5743789" end_time="15:00:00" />
			<leg mode="car" />
			<act type="end" x="790772" y="5752462" end_time="00:00:00" />
 		</plan>
 	</person>

	<person id="10026.1">
		<plan>
			<act type="EvacZone" x="777221" y="5743168" end_time="15:00:00" />
			<leg mode="car" />
			<act type="end" x="790772" y="5752462" end_time="00:00:00" />
 		</plan>
 	</person>

	<person id="10026.2">
		<plan>
			<act type="EvacZone" x="779033" y="5744540" end_time="15:00:00" />
			<leg mode="car" />
			<act type="end" x="790772" y="5752462" end_time="00:00:00" />
 		</plan>
 	</person>

	<person id="10026.3">
		<plan>
			<act type="EvacZone" x="777221" y="5743168" end_time="15:00:00" />
			<leg mode="car" />
			<act type="end" x="790772" y="5752462" end_time="00:00:00" />
 		</plan>
 	</person>

	<person id="10027.1">
		<plan>
			<act type="EvacZone" x="777109" y="5744550" end_time="15:00:00" />
			<leg mode="car" />
			<act type="end" x="790772" y="5752462" end_time="00:00:00" />
 		</plan>
 	</person>

	<person id="10027.3">
		<plan>
			<act type="EvacZone" x="777109" y="5744550" end_time="15:00:00" />
			<leg mode="car" />
			<act type="end" x="790772" y="5752462" end_time="00:00:00" />
 		</plan>
 	</person>

	<person id="10027.4">
		<plan>
			<act type="EvacZone" x="777109" y="5744550" end_time="15:00:00" />
			<leg mode="car" />
			<act type="end" x="790772" y="5752462" end_time="00:00:00" />
 		</plan>
 	</person>

	<person id="10028.1">
		<plan>
			<act type="EvacZone" x="777548" y="5744612" end_time="15:00:00" />
			<leg mode="car" />
			<act type="end" x="790772" y="5752462" end_time="00:00:00" />
 		</plan>
 	</person>

	<person id="10028.2">
		<plan>
			<act type="EvacZone" x="777548" y="5744612" end_time="15:00:00" />
			<leg mode="car" />
			<act type="end" x="790772" y="5752462" end_time="00:00:00" />
 		</plan>
 	</person>

	<person id="10028.3">
		<plan>
			<act type="EvacZone" x="777548" y="5744612" end_time="15:00:00" />
			<leg mode="car" />
			<act type="end" x="790772" y="5752462" end_time="00:00:00" />
 		</plan>
 	</person>

	<person id="10028.4">
		<plan>
			<act type="EvacZone" x="777548" y="5744612" end_time="15:00:00" />
			<leg mode="car" />
			<act type="end" x="790772" y="5752462" end_time="00:00:00" />
 		</plan>
 	</person>

	<person id="10029.1">
		<plan>
			<act type="EvacZone" x="777302" y="5744356" end_time="15:00:00" />
			<leg mode="car" />
			<act type="end" x="790772" y="5752462" end_time="00:00:00" />
 		</plan>
 	</person>

	<person id="10029.2">
		<plan>
			<act type="EvacZone" x="777302" y="5744356" end_time="15:00:00" />
			<leg mode="car" />
			<act type="end" x="790772" y="5752462" end_time="00:00:00" />
 		</plan>
 	</person>

	<person id="10029.3">
		<plan>
			<act type="EvacZone" x="777302" y="5744356" end_time="15:00:00" />
			<leg mode="car" />
			<act type="end" x="790772" y="5752462" end_time="00:00:00" />
 		</plan>
 	</person>

	<person id="10030.1">
		<plan>
			<act type="EvacZone" x="777540" y="5743393" end_time="15:00:00" />
			<leg mode="car" />
			<act type="end" x="790772" y="5752462" end_time="00:00:00" />
 		</plan>
 	</person>

	<person id="10030.2">
		<plan>
			<act type="EvacZone" x="777540" y="5743393" end_time="15:06:25" />
			<leg mode="car" />
			<act type="end" x="790772" y="5752462" end_time="00:00:00" />
 		</plan>
 	</person>

	<person id="10030.3">
		<plan>
			<act type="EvacZone" x="777540" y="5743393" end_time="15:12:02" />
			<leg mode="car" />
			<act type="end" x="790772" y="5752462" end_time="00:00:00" />
 		</plan>
 	</person>

	<person id="10030.4">
		<plan>
			<act type="EvacZone" x="777540" y="5743393" end_time="15:00:00" />
			<leg mode="car" />
			<act type="end" x="790772" y="5752462" end_time="00:00:00" />
 		</plan>
 	</person>

	<person id="10031.1">
		<plan>
			<act type="EvacZone" x="777548" y="5744612" end_time="15:00:00" />
			<leg mode="car" />
			<act type="end" x="790772" y="5752462" end_time="00:00:00" />
 		</plan>
 	</person>

	<person id="10031.2">
		<plan>
			<act type="EvacZone" x="777548" y="5744612" end_time="15:00:00" />
			<leg mode="car" />
			<act type="end" x="790772" y="5752462" end_time="00:00:00" />
 		</plan>
 	</person>

	<person id="10031.3">
		<plan>
			<act type="EvacZone" x="777548" y="5744612" end_time="15:00:00" />
			<leg mode="car" />
			<act type="end" x="790772" y="5752462" end_time="00:00:00" />
 		</plan>
 	</person>

	<person id="10031.4">
		<plan>
			<act type="EvacZone" x="777548" y="5744612" end_time="15:00:05" />
			<leg mode="car" />
			<act type="end" x="790772" y="5752462" end_time="00:00:00" />
 		</plan>
 	</person>

	<person id="10032.1">
		<plan>
			<act type="EvacZone" x="777302" y="5744356" end_time="15:00:00" />
			<leg mode="car" />
			<act type="end" x="790772" y="5752462" end_time="00:00:00" />
 		</plan>
 	</person>

	<person id="10032.2">
		<plan>
			<act type="EvacZone" x="777302" y="5744356" end_time="15:00:00" />
			<leg mode="car" />
			<act type="end" x="790772" y="5752462" end_time="00:00:00" />
 		</plan>
 	</person>

	<person id="10032.3">
		<plan>
			<act type="EvacZone" x="777302" y="5744356" end_time="15:00:00" />
			<leg mode="car" />
			<act type="end" x="790772" y="5752462" end_time="00:00:00" />
 		</plan>
 	</person>

	<person id="10032.4">
		<plan>
			<act type="EvacZone" x="777302" y="5744356" end_time="15:00:00" />
			<leg mode="car" />
			<act type="end" x="790772" y="5752462" end_time="00:00:00" />
 		</plan>
 	</person>

	<person id="10033.2">
		<plan>
			<act type="EvacZone" x="777774" y="5743669" end_time="15:00:00" />
			<leg mode="car" />
			<act type="end" x="790772" y="5752462" end_time="00:00:00" />
 		</plan>
 	</person>

	<person id="10033.3">
		<plan>
			<act type="EvacZone" x="777774" y="5743669" end_time="15:00:00" />
			<leg mode="car" />
			<act type="end" x="790772" y="5752462" end_time="00:00:00" />
 		</plan>
 	</person>

	<person id="10033.4">
		<plan>
			<act type="EvacZone" x="777774" y="5743669" end_time="15:00:00" />
			<leg mode="car" />
			<act type="end" x="790772" y="5752462" end_time="00:00:00" />
 		</plan>
 	</person>

	<person id="10034.1">
		<plan>
			<act type="EvacZone" x="777302" y="5744356" end_time="15:00:00" />
			<leg mode="car" />
			<act type="end" x="790772" y="5752462" end_time="00:00:00" />
 		</plan>
 	</person>

	<person id="10034.2">
		<plan>
			<act type="EvacZone" x="777302" y="5744356" end_time="15:00:00" />
			<leg mode="car" />
			<act type="end" x="790772" y="5752462" end_time="00:00:00" />
 		</plan>
 	</person>

	<person id="10034.3">
		<plan>
			<act type="EvacZone" x="777302" y="5744356" end_time="15:00:00" />
			<leg mode="car" />
			<act type="end" x="790772" y="5752462" end_time="00:00:00" />
 		</plan>
 	</person>

	<person id="10034.4">
		<plan>
			<act type="EvacZone" x="777302" y="5744356" end_time="15:00:00" />
			<leg mode="car" />
			<act type="end" x="790772" y="5752462" end_time="00:00:00" />
 		</plan>
 	</person>

	<person id="10035.1">
		<plan>
			<act type="EvacZone" x="777778" y="5743886" end_time="15:00:00" />
			<leg mode="car" />
			<act type="end" x="790772" y="5752462" end_time="00:00:00" />
 		</plan>
 	</person>

	<person id="10035.2">
		<plan>
			<act type="EvacZone" x="777778" y="5743886" end_time="15:00:00" />
			<leg mode="car" />
			<act type="end" x="790772" y="5752462" end_time="00:00:00" />
 		</plan>
 	</person>

	<person id="10035.4">
		<plan>
			<act type="EvacZone" x="777778" y="5743886" end_time="15:00:02" />
			<leg mode="car" />
			<act type="end" x="790772" y="5752462" end_time="00:00:00" />
 		</plan>
 	</person>

	<person id="10036.1">
		<plan>
			<act type="EvacZone" x="777774" y="5743669" end_time="15:00:00" />
			<leg mode="car" />
			<act type="end" x="790772" y="5752462" end_time="00:00:00" />
 		</plan>
 	</person>

	<person id="10036.2">
		<plan>
			<act type="EvacZone" x="778483" y="5744475" end_time="15:00:00" />
			<leg mode="car" />
			<act type="end" x="790772" y="5752462" end_time="00:00:00" />
 		</plan>
 	</person>

	<person id="10036.3">
		<plan>
			<act type="EvacZone" x="777774" y="5743669" end_time="15:01:25" />
			<leg mode="car" />
			<act type="end" x="790772" y="5752462" end_time="00:00:00" />
 		</plan>
 	</person>

	<person id="10036.4">
		<plan>
			<act type="EvacZone" x="777774" y="5743669" end_time="15:00:00" />
			<leg mode="car" />
			<act type="end" x="790772" y="5752462" end_time="00:00:00" />
 		</plan>
 	</person>

	<person id="10037.1">
		<plan>
			<act type="EvacZone" x="776933" y="5743589" end_time="15:00:00" />
			<leg mode="car" />
			<act type="end" x="790772" y="5752462" end_time="00:00:00" />
 		</plan>
 	</person>

	<person id="10037.2">
		<plan>
			<act type="EvacZone" x="776933" y="5743589" end_time="15:00:00" />
			<leg mode="car" />
			<act type="end" x="790772" y="5752462" end_time="00:00:00" />
 		</plan>
 	</person>

	<person id="10037.3">
		<plan>
			<act type="EvacZone" x="776933" y="5743589" end_time="15:00:00" />
			<leg mode="car" />
			<act type="end" x="790772" y="5752462" end_time="00:00:00" />
 		</plan>
 	</person>

	<person id="10037.4">
		<plan>
			<act type="EvacZone" x="776933" y="5743589" end_time="15:14:27" />
			<leg mode="car" />
			<act type="end" x="790772" y="5752462" end_time="00:00:00" />
 		</plan>
 	</person>

	<person id="10038.1">
		<plan>
			<act type="EvacZone" x="776814" y="5743035" end_time="15:00:00" />
			<leg mode="car" />
			<act type="end" x="790772" y="5752462" end_time="00:00:00" />
 		</plan>
 	</person>

	<person id="10038.2">
		<plan>
			<act type="EvacZone" x="776814" y="5743035" end_time="15:00:00" />
			<leg mode="car" />
			<act type="end" x="790772" y="5752462" end_time="00:00:00" />
 		</plan>
 	</person>

	<person id="10038.3">
		<plan>
			<act type="EvacZone" x="776814" y="5743035" end_time="15:00:00" />
			<leg mode="car" />
			<act type="end" x="790772" y="5752462" end_time="00:00:00" />