<?xml version="1.0" encoding="utf-8"?>
<!DOCTYPE population SYSTEM "http://www.matsim.org/files/dtd/population_v6.dtd">
<population>
<!-- ====================================================================== -->

	<person id= "0" >
		<plan selected="yes">
			<act type="home" x="777658" y="5743903" end_time="06:00:00" />
			<leg mode="car" />
			<act type="end" x="790772" y="5752462" />
 		</plan>
 	</person>

	<person id= "1" >
		<plan selected="yes">
			<act type="home" x="777658" y="5743903" end_time="06:00:00" />
			<leg mode="car" />
			<act type="end" x="790772" y="5752462" />
 		</plan>
 	</person>

	<person id= "2" >
		<plan selected="yes">
			<act type="home" x="777658" y="5743903" end_time="06:00:00" />
			<leg mode="car" />
			<act type="end" x="790772" y="5752462" />
 		</plan>
 	</person>

	<person id= "3" >
		<plan selected="yes">
			<act type="home" x="777658" y="5743903" end_time="06:00:00" />
			<leg mode="car" />
			<act type="end" x="790772" y="5752462" />
 		</plan>
 	</person>

	<person id= "4" >
		<plan selected="yes">
			<act type="home" x="777548" y="5744612" end_time="06:00:00" />
			<leg mode="car" />
			<act type="end" x="790772" y="5752462" />
 		</plan>
 	</person>

	<person id= "5" >
		<plan selected="yes">
			<act type="home" x="777548" y="5744612" end_time="06:00:00" />
			<leg mode="car" />
			<act type="end" x="790772" y="5752462" />
 		</plan>
 	</person>

	<person id= "6" >
		<plan selected="yes">
			<act type="home" x="777548" y="5744612" end_time="06:00:00" />
			<leg mode="car" />
			<act type="end" x="790772" y="5752462" />
 		</plan>
 	</person>

	<person id= "7" >
		<plan selected="yes">
			<act type="home" x="777548" y="5744612" end_time="06:00:00" />
			<leg mode="car" />
			<act type="end" x="790772" y="5752462" />
 		</plan>
 	</person>

	<person id= "8" >
		<plan selected="yes">
			<act type="home" x="777508" y="5742708" end_time="06:00:00" />
			<leg mode="car" />
			<act type="end" x="790772" y="5752462" />
 		</plan>
 	</person>

	<person id= "9" >
		<plan selected="yes">
			<act type="home" x="777508" y="5742708" end_time="06:00:00" />
			<leg mode="car" />
			<act type="end" x="790772" y="5752462" />
 		</plan>
 	</person>

	<person id= "10" >
		<plan selected="yes">
			<act type="home" x="777508" y="5742708" end_time="06:00:00" />
			<leg mode="car" />
			<act type="end" x="790772" y="5752462" />
 		</plan>
 	</person>

	<person id= "11" >
		<plan selected="yes">
			<act type="home" x="777508" y="5742708" end_time="06:00:00" />
			<leg mode="car" />
			<act type="end" x="790772" y="5752462" />
 		</plan>
 	</person>

	<person id= "12" >
		<plan selected="yes">
			<act type="home" x="776327" y="5743550" end_time="06:00:00" />
			<leg mode="car" />
			<act type="end" x="790772" y="5752462" />
 		</plan>
 	</person>

	<person id= "13" >
		<plan selected="yes">
			<act type="home" x="776327" y="5743550" end_time="06:00:00" />
			<leg mode="car" />
			<act type="end" x="790772" y="5752462" />
 		</plan>
 	</person>

	<person id= "14" >
		<plan selected="yes">
			<act type="home" x="776327" y="5743550" end_time="06:00:00" />
			<leg mode="car" />
			<act type="end" x="790772" y="5752462" />
 		</plan>
 	</person>

	<person id= "15" >
		<plan selected="yes">
			<act type="home" x="776327" y="5743550" end_time="06:00:00" />
			<leg mode="car" />
			<act type="end" x="790772" y="5752462" />
 		</plan>
 	</person>

	<person id= "16" >
		<plan selected="yes">
			<act type="home" x="776814" y="5743035" end_time="06:00:00" />
			<leg mode="car" />
			<act type="end" x="790772" y="5752462" />
 		</plan>
 	</person>

	<person id= "17" >
		<plan selected="yes">
			<act type="home" x="778483" y="5744475" end_time="06:00:00" />
			<leg mode="car" />
			<act type="end" x="790772" y="5752462" />
 		</plan>
 	</person>

	<person id= "18" >
		<plan selected="yes">
			<act type="home" x="776814" y="5743035" end_time="06:00:00" />
			<leg mode="car" />
			<act type="end" x="790772" y="5752462" />
 		</plan>
 	</person>

	<person id= "19" >
		<plan selected="yes">
			<act type="home" x="776814" y="5743035" end_time="06:00:00" />
			<leg mode="car" />
			<act type="end" x="790772" y="5752462" />
 		</plan>
 	</person>

	<person id= "20" >
		<plan selected="yes">
			<act type="home" x="776850" y="5742664" end_time="06:00:00" />
			<leg mode="car" />
			<act type="end" x="790772" y="5752462" />
 		</plan>
 	</person>

	<person id= "21" >
		<plan selected="yes">
			<act type="home" x="776850" y="5742664" end_time="06:00:00" />
			<leg mode="car" />
			<act type="end" x="790772" y="5752462" />
 		</plan>
 	</person>

	<person id= "22" >
		<plan selected="yes">
			<act type="home" x="776850" y="5742664" end_time="06:00:00" />
			<leg mode="car" />
			<act type="end" x="790772" y="5752462" />
 		</plan>
 	</person>

	<person id= "23" >
		<plan selected="yes">
			<act type="home" x="776933" y="5743589" end_time="06:00:00" />
			<leg mode="car" />
			<act type="end" x="790772" y="5752462" />
 		</plan>
 	</person>

	<person id= "24" >
		<plan selected="yes">
			<act type="home" x="776933" y="5743589" end_time="06:00:00" />
			<leg mode="car" />
			<act type="end" x="790772" y="5752462" />
 		</plan>
 	</person>

	<person id= "25" >
		<plan selected="yes">
			<act type="home" x="776933" y="5743589" end_time="06:00:00" />
			<leg mode="car" />
			<act type="end" x="790772" y="5752462" />
 		</plan>
 	</person>

	<person id= "26" >
		<plan selected="yes">
			<act type="home" x="776933" y="5743589" end_time="06:00:00" />
			<leg mode="car" />
			<act type="end" x="790772" y="5752462" />
 		</plan>
 	</person>

	<person id= "27" >
		<plan selected="yes">
			<act type="home" x="776710" y="5742443" end_time="06:00:00" />
			<leg mode="car" />
			<act type="end" x="790772" y="5752462" />
 		</plan>
 	</person>

	<person id= "28" >
		<plan selected="yes">
			<act type="home" x="776710" y="5742443" end_time="06:00:00" />
			<leg mode="car" />
			<act type="end" x="790772" y="5752462" />
 		</plan>
 	</person>

	<person id= "29" >
		<plan selected="yes">
			<act type="home" x="778503" y="5744483" end_time="06:00:00" />
			<leg mode="car" />
			<act type="end" x="790772" y="5752462" />
 		</plan>
 	</person>

	<person id= "30" >
		<plan selected="yes">
			<act type="home" x="777209" y="5744555" end_time="06:00:00" />
			<leg mode="car" />
			<act type="end" x="790772" y="5752462" />
 		</plan>
 	</person>

	<person id= "31" >
		<plan selected="yes">
			<act type="home" x="777209" y="5744555" end_time="06:00:00" />
			<leg mode="car" />
			<act type="end" x="790772" y="5752462" />
 		</plan>
 	</person>

	<person id= "32" >
		<plan selected="yes">
			<act type="home" x="777209" y="5744555" end_time="06:00:00" />
			<leg mode="car" />
			<act type="end" x="790772" y="5752462" />
 		</plan>
 	</person>

	<person id= "33" >
		<plan selected="yes">
			<act type="home" x="777209" y="5744555" end_time="06:00:00" />
			<leg mode="car" />
			<act type="end" x="790772" y="5752462" />
 		</plan>
 	</person>

	<person id= "34" >
		<plan selected="yes">
			<act type="home" x="777658" y="5743903" end_time="06:00:00" />
			<leg mode="car" />
			<act type="end" x="790772" y="5752462" />
 		</plan>
 	</person>

	<person id= "35" >
		<plan selected="yes">
			<act type="home" x="777658" y="5743903" end_time="06:00:00" />
			<leg mode="car" />
			<act type="end" x="790772" y="5752462" />
 		</plan>
 	</person>

	<person id= "36" >
		<plan selected="yes">
			<act type="home" x="777658" y="5743903" end_time="06:00:00" />
			<leg mode="car" />
			<act type="end" x="790772" y="5752462" />
 		</plan>
 	</person>

	<person id= "37" >
		<plan selected="yes">
			<act type="home" x="777599" y="5744804" end_time="06:00:00" />
			<leg mode="car" />
			<act type="end" x="790772" y="5752462" />
 		</plan>
 	</person>

	<person id= "38" >
		<plan selected="yes">
			<act type="home" x="777599" y="5744804" end_time="06:00:00" />
			<leg mode="car" />
			<act type="end" x="790772" y="5752462" />
 		</plan>
 	</person>

	<person id= "39" >
		<plan selected="yes">
			<act type="home" x="777540" y="5743393" end_time="06:00:00" />
			<leg mode="car" />
			<act type="end" x="790772" y="5752462" />
 		</plan>
 	</person>

	<person id= "40" >
		<plan selected="yes">
			<act type="home" x="777540" y="5743393" end_time="06:00:00" />
			<leg mode="car" />
			<act type="end" x="790772" y="5752462" />
 		</plan>
 	</person>

	<person id= "41" >
		<plan selected="yes">
			<act type="home" x="777540" y="5743393" end_time="06:00:00" />
			<leg mode="car" />
			<act type="end" x="790772" y="5752462" />
 		</plan>
 	</person>

	<person id= "42" >
		<plan selected="yes">
			<act type="home" x="777302" y="5744356" end_time="06:00:00" />
			<leg mode="car" />
			<act type="end" x="790772" y="5752462" />
 		</plan>
 	</person>

	<person id= "43" >
		<plan selected="yes">
			<act type="home" x="777302" y="5744356" end_time="06:00:00" />
			<leg mode="car" />
			<act type="end" x="790772" y="5752462" />
 		</plan>
 	</person>

	<person id= "44" >
		<plan selected="yes">
			<act type="home" x="777302" y="5744356" end_time="06:00:00" />
			<leg mode="car" />
			<act type="end" x="790772" y="5752462" />
 		</plan>
 	</person>

	<person id= "45" >
		<plan selected="yes">
			<act type="home" x="777302" y="5744356" end_time="06:00:00" />
			<leg mode="car" />
			<act type="end" x="790772" y="5752462" />
 		</plan>
 	</person>

	<person id= "46" >
		<plan selected="yes">
			<act type="home" x="776327" y="5743550" end_time="06:00:00" />
			<leg mode="car" />
			<act type="end" x="790772" y="5752462" />
 		</plan>
 	</person>

	<person id= "47" >
		<plan selected="yes">
			<act type="home" x="776327" y="5743550" end_time="06:00:00" />
			<leg mode="car" />
			<act type="end" x="790772" y="5752462" />
 		</plan>
 	</person>

	<person id= "48" >
		<plan selected="yes">
			<act type="home" x="776327" y="5743550" end_time="06:00:00" />
			<leg mode="car" />
			<act type="end" x="790772" y="5752462" />
 		</plan>
 	</person>

	<person id= "49" >
		<plan selected="yes">
			<act type="home" x="777046" y="5742407" end_time="06:00:00" />
			<leg mode="car" />
			<act type="end" x="790772" y="5752462" />
 		</plan>
 	</person>

	<person id= "50" >
		<plan selected="yes">
			<act type="home" x="777046" y="5742407" end_time="06:00:00" />
			<leg mode="car" />
			<act type="end" x="790772" y="5752462" />
 		</plan>
 	</person>

	<person id= "51" >
		<plan selected="yes">
			<act type="home" x="777046" y="5742407" end_time="06:00:00" />
			<leg mode="car" />
			<act type="end" x="790772" y="5752462" />
 		</plan>
 	</person>

	<person id= "52" >
		<plan selected="yes">
			<act type="home" x="777046" y="5742407" end_time="06:00:00" />
			<leg mode="car" />
			<act type="end" x="790772" y="5752462" />
 		</plan>
 	</person>

	<person id= "53" >
		<plan selected="yes">
			<act type="home" x="776814" y="5743035" end_time="06:00:00" />
			<leg mode="car" />
			<act type="end" x="790772" y="5752462" />
 		</plan>
 	</person>

	<person id= "54" >
		<plan selected="yes">
			<act type="home" x="776814" y="5743035" end_time="06:00:00" />
			<leg mode="car" />
			<act type="end" x="790772" y="5752462" />
 		</plan>
 	</person>

	<person id= "55" >
		<plan selected="yes">
			<act type="home" x="776814" y="5743035" end_time="06:00:00" />
			<leg mode="car" />
			<act type="end" x="790772" y="5752462" />
 		</plan>
 	</person>

	<person id= "56" >
		<plan selected="yes">
			<act type="home" x="776589" y="5743710" end_time="06:00:00" />
			<leg mode="car" />
			<act type="end" x="790772" y="5752462" />
 		</plan>
 	</person>

	<person id= "57" >
		<plan selected="yes">
			<act type="home" x="776589" y="5743710" end_time="06:00:00" />
			<leg mode="car" />
			<act type="end" x="790772" y="5752462" />
 		</plan>
 	</person>

	<person id= "58" >
		<plan selected="yes">
			<act type="home" x="776589" y="5743710" end_time="06:00:00" />
			<leg mode="car" />
			<act type="end" x="790772" y="5752462" />
 		</plan>
 	</person>

	<person id= "59" >
		<plan selected="yes">
			<act type="home" x="776787" y="5743789" end_time="06:00:00" />
			<leg mode="car" />
			<act type="end" x="790772" y="5752462" />
 		</plan>
 	</person>

	<person id= "60" >
		<plan selected="yes">
			<act type="home" x="776787" y="5743789" end_time="06:00:00" />
			<leg mode="car" />
			<act type="end" x="790772" y="5752462" />
 		</plan>
 	</person>

	<person id= "61" >
		<plan selected="yes">
			<act type="home" x="776787" y="5743789" end_time="06:00:00" />
			<leg mode="car" />
			<act type="end" x="790772" y="5752462" />
 		</plan>
 	</person>

	<person id= "62" >
		<plan selected="yes">
			<act type="home" x="776787" y="5743789" end_time="06:00:00" />
			<leg mode="car" />
			<act type="end" x="790772" y="5752462" />
 		</plan>
 	</person>

	<person id= "63" >
		<plan selected="yes">
			<act type="home" x="777221" y="5743168" end_time="06:00:00" />
			<leg mode="car" />
			<act type="end" x="790772" y="5752462" />
 		</plan>
 	</person>

	<person id= "64" >
		<plan selected="yes">
			<act type="home" x="777221" y="5743168" end_time="06:00:00" />
			<leg mode="car" />
			<act type="end" x="790772" y="5752462" />
 		</plan>
 	</person>

	<person id= "65" >
		<plan selected="yes">
			<act type="home" x="777221" y="5743168" end_time="06:00:00" />
			<leg mode="car" />
			<act type="end" x="790772" y="5752462" />
 		</plan>
 	</person>

	<person id= "66" >
		<plan selected="yes">
			<act type="home" x="777302" y="5744356" end_time="06:00:00" />
			<leg mode="car" />
			<act type="end" x="790772" y="5752462" />
 		</plan>
 	</person>

	<person id= "67" >
		<plan selected="yes">
			<act type="home" x="777302" y="5744356" end_time="06:00:00" />
			<leg mode="car" />
			<act type="end" x="790772" y="5752462" />
 		</plan>
 	</person>

	<person id= "68" >
		<plan selected="yes">
			<act type="home" x="777302" y="5744356" end_time="06:00:00" />
			<leg mode="car" />
			<act type="end" x="790772" y="5752462" />
 		</plan>
 	</person>

	<person id= "69" >
		<plan selected="yes">
			<act type="home" x="777739" y="5744316" end_time="06:00:00" />
			<leg mode="car" />
			<act type="end" x="790772" y="5752462" />
 		</plan>
 	</person>

	<person id= "70" >
		<plan selected="yes">
			<act type="home" x="777739" y="5744316" end_time="06:00:00" />
			<leg mode="car" />
			<act type="end" x="790772" y="5752462" />
 		</plan>
 	</person>

	<person id= "71" >
		<plan selected="yes">
			<act type="home" x="777857" y="5743478" end_time="06:00:00" />
			<leg mode="car" />
			<act type="end" x="790772" y="5752462" />
 		</plan>
 	</person>

	<person id= "72" >
		<plan selected="yes">
			<act type="home" x="777857" y="5743478" end_time="06:00:00" />
			<leg mode="car" />
			<act type="end" x="790772" y="5752462" />
 		</plan>
 	</person>

	<person id= "73" >
		<plan selected="yes">
			<act type="home" x="777857" y="5743478" end_time="06:00:00" />
			<leg mode="car" />
			<act type="end" x="790772" y="5752462" />
 		</plan>
 	</person>

	<person id= "74" >
		<plan selected="yes">
			<act type="home" x="776589" y="5743710" end_time="06:00:00" />
			<leg mode="car" />
			<act type="end" x="790772" y="5752462" />
 		</plan>
 	</person>

	<person id= "75" >
		<plan selected="yes">
			<act type="home" x="778483" y="5744475" end_time="06:00:00" />
			<leg mode="car" />
			<act type="end" x="790772" y="5752462" />
 		</plan>
 	</person>

	<person id= "76" >
		<plan selected="yes">
			<act type="home" x="776589" y="5743710" end_time="06:00:00" />
			<leg mode="car" />
			<act type="end" x="790772" y="5752462" />
 		</plan>
 	</person>

	<person id= "77" >
		<plan selected="yes">
			<act type="home" x="776589" y="5743710" end_time="06:00:00" />
			<leg mode="car" />
			<act type="end" x="790772" y="5752462" />
 		</plan>
 	</person>

	<person id= "78" >
		<plan selected="yes">
			<act type="home" x="776327" y="5743550" end_time="06:00:00" />
			<leg mode="car" />
			<act type="end" x="790772" y="5752462" />
 		</plan>
 	</person>

	<person id= "79" >
		<plan selected="yes">
			<act type="home" x="776327" y="5743550" end_time="06:00:00" />
			<leg mode="car" />
			<act type="end" x="790772" y="5752462" />
 		</plan>
 	</person>

	<person id= "80" >
		<plan selected="yes">
			<act type="home" x="778483" y="5744475" end_time="06:00:00" />
			<leg mode="car" />
			<act type="end" x="790772" y="5752462" />
 		</plan>
 	</person>

	<person id= "81" >
		<plan selected="yes">
			<act type="home" x="776327" y="5743550" end_time="06:00:00" />
			<leg mode="car" />
			<act type="end" x="790772" y="5752462" />
 		</plan>
 	</person>

	<person id= "82" >
		<plan selected="yes">
			<act type="home" x="776564" y="5744045" end_time="06:00:00" />
			<leg mode="car" />
			<act type="end" x="790772" y="5752462" />
 		</plan>
 	</person>

	<person id= "83" >
		<plan selected="yes">
			<act type="home" x="776564" y="5744045" end_time="06:00:00" />
			<leg mode="car" />
			<act type="end" x="790772" y="5752462" />
 		</plan>
 	</person>

	<person id= "84" >
		<plan selected="yes">
			<act type="home" x="778483" y="5744475" end_time="06:00:00" />
			<leg mode="car" />
			<act type="end" x="790772" y="5752462" />
 		</plan>
 	</person>

	<person id= "85" >
		<plan selected="yes">
			<act type="home" x="776564" y="5744045" end_time="06:00:00" />
			<leg mode="car" />
			<act type="end" x="790772" y="5752462" />
 		</plan>
 	</person>

	<person id= "86" >
		<plan selected="yes">
			<act type="home" x="776787" y="5743789" end_time="06:00:00" />
			<leg mode="car" />
			<act type="end" x="790772" y="5752462" />
 		</plan>
 	</person>

	<person id= "87" >
		<plan selected="yes">
			<act type="home" x="778031" y="5744530" end_time="06:00:00" />
			<leg mode="car" />
			<act type="end" x="790772" y="5752462" />
 		</plan>
 	</person>

	<person id= "88" >
		<plan selected="yes">
			<act type="home" x="776787" y="5743789" end_time="06:00:00" />
			<leg mode="car" />
			<act type="end" x="790772" y="5752462" />
 		</plan>
 	</person>

	<person id= "89" >
		<plan selected="yes">
			<act type="home" x="777221" y="5743168" end_time="06:00:00" />
			<leg mode="car" />
			<act type="end" x="790772" y="5752462" />
 		</plan>
 	</person>

	<person id= "90" >
		<plan selected="yes">
			<act type="home" x="779033" y="5744540" end_time="06:00:00" />
			<leg mode="car" />
			<act type="end" x="790772" y="5752462" />
 		</plan>
 	</person>

	<person id= "91" >
		<plan selected="yes">
			<act type="home" x="777221" y="5743168" end_time="06:00:00" />
			<leg mode="car" />
			<act type="end" x="790772" y="5752462" />
 		</plan>
 	</person>

	<person id= "92" >
		<plan selected="yes">
			<act type="home" x="777109" y="5744550" end_time="06:00:00" />
			<leg mode="car" />
			<act type="end" x="790772" y="5752462" />
 		</plan>
 	</person>

	<person id= "93" >
		<plan selected="yes">
			<act type="home" x="777109" y="5744550" end_time="06:00:00" />
			<leg mode="car" />
			<act type="end" x="790772" y="5752462" />
 		</plan>
 	</person>

	<person id= "94" >
		<plan selected="yes">
			<act type="home" x="777109" y="5744550" end_time="06:00:00" />
			<leg mode="car" />
			<act type="end" x="790772" y="5752462" />
 		</plan>
 	</person>

	<person id= "95" >
		<plan selected="yes">
			<act type="home" x="777548" y="5744612" end_time="06:00:00" />
			<leg mode="car" />
			<act type="end" x="790772" y="5752462" />
 		</plan>
 	</person>

	<person id= "96" >
		<plan selected="yes">
			<act type="home" x="777548" y="5744612" end_time="06:00:00" />
			<leg mode="car" />
			<act type="end" x="790772" y="5752462" />
 		</plan>
 	</person>

	<person id= "97" >
		<plan selected="yes">
			<act type="home" x="777548" y="5744612" end_time="06:00:00" />
			<leg mode="car" />
			<act type="end" x="790772" y="5752462" />
 		</plan>
 	</person>

	<person id= "98" >
		<plan selected="yes">
			<act type="home" x="777548" y="5744612" end_time="06:00:00" />
			<leg mode="car" />
			<act type="end" x="790772" y="5752462" />
 		</plan>
 	</person>

	<person id= "99" >
		<plan selected="yes">
			<act type="home" x="777302" y="5744356" end_time="06:00:00" />
			<leg mode="car" />
			<act type="end" x="790772" y="5752462" />
 		</plan>
 	</person>

	<person id= "100" >
		<plan selected="yes">
			<act type="home" x="777302" y="5744356" end_time="06:00:00" />
			<leg mode="car" />
			<act type="end" x="790772" y="5752462" />
 		</plan>
 	</person>

	<person id= "101" >
		<plan selected="yes">
			<act type="home" x="777302" y="5744356" end_time="06:00:00" />
			<leg mode="car" />
			<act type="end" x="790772" y="5752462" />
 		</plan>
 	</person>

	<person id= "102" >
		<plan selected="yes">
			<act type="home" x="777540" y="5743393" end_time="06:00:00" />
			<leg mode="car" />
			<act type="end" x="790772" y="5752462" />
 		</plan>
 	</person>

	<person id= "103" >
		<plan selected="yes">
			<act type="home" x="777540" y="5743393" end_time="06:00:00" />
			<leg mode="car" />
			<act type="end" x="790772" y="5752462" />
 		</plan>
 	</person>

	<person id= "104" >
		<plan selected="yes">
			<act type="home" x="777540" y="5743393" end_time="06:00:00" />
			<leg mode="car" />
			<act type="end" x="790772" y="5752462" />
 		</plan>
 	</person>

	<person id= "105" >
		<plan selected="yes">
			<act type="home" x="777540" y="5743393" end_time="06:00:00" />
			<leg mode="car" />
			<act type="end" x="790772" y="5752462" />
 		</plan>
 	</person>

	<person id= "106" >
		<plan selected="yes">
			<act type="home" x="777548" y="5744612" end_time="06:00:00" />
			<leg mode="car" />
			<act type="end" x="790772" y="5752462" />
 		</plan>
 	</person>

	<person id= "107" >
		<plan selected="yes">
			<act type="home" x="777548" y="5744612" end_time="06:00:00" />
			<leg mode="car" />
			<act type="end" x="790772" y="5752462" />
 		</plan>
 	</person>

	<person id= "108" >
		<plan selected="yes">
			<act type="home" x="777548" y="5744612" end_time="06:00:00" />
			<leg mode="car" />
			<act type="end" x="790772" y="5752462" />
 		</plan>
 	</person>

	<person id= "109" >
		<plan selected="yes">
			<act type="home" x="777548" y="5744612" end_time="06:00:00" />
			<leg mode="car" />
			<act type="end" x="790772" y="5752462" />
 		</plan>
 	</person>

	<person id= "110" >
		<plan selected="yes">
			<act type="home" x="777302" y="5744356" end_time="06:00:00" />
			<leg mode="car" />
			<act type="end" x="790772" y="5752462" />
 		</plan>
 	</person>

	<person id= "111" >
		<plan selected="yes">
			<act type="home" x="777302" y="5744356" end_time="06:00:00" />
			<leg mode="car" />
			<act type="end" x="790772" y="5752462" />
 		</plan>
 	</person>

	<person id= "112" >
		<plan selected="yes">
			<act type="home" x="777302" y="5744356" end_time="06:00:00" />
			<leg mode="car" />
			<act type="end" x="790772" y="5752462" />
 		</plan>
 	</person>

	<person id= "113" >
		<plan selected="yes">
			<act type="home" x="777302" y="5744356" end_time="06:00:00" />
			<leg mode="car" />
			<act type="end" x="790772" y="5752462" />
 		</plan>
 	</person>

	<person id= "114" >
		<plan selected="yes">
			<act type="home" x="777774" y="5743669" end_time="06:00:00" />
			<leg mode="car" />
			<act type="end" x="790772" y="5752462" />
 		</plan>
 	</person>

	<person id= "115" >
		<plan selected="yes">
			<act type="home" x="777774" y="5743669" end_time="06:00:00" />
			<leg mode="car" />
			<act type="end" x="790772" y="5752462" />
 		</plan>
 	</person>

	<person id= "116" >
		<plan selected="yes">
			<act type="home" x="777774" y="5743669" end_time="06:00:00" />
			<leg mode="car" />
			<act type="end" x="790772" y="5752462" />
 		</plan>
 	</person>

	<person id= "117" >
		<plan selected="yes">
			<act type="home" x="777302" y="5744356" end_time="06:00:00" />
			<leg mode="car" />
			<act type="end" x="790772" y="5752462" />
 		</plan>
 	</person>

	<person id= "118" >
		<plan selected="yes">
			<act type="home" x="777302" y="5744356" end_time="06:00:00" />
			<leg mode="car" />
			<act type="end" x="790772" y="5752462" />
 		</plan>
 	</person>

	<person id= "119" >
		<plan selected="yes">
			<act type="home" x="777302" y="5744356" end_time="06:00:00" />
			<leg mode="car" />
			<act type="end" x="790772" y="5752462" />
 		</plan>
 	</person>

	<person id= "120" >
		<plan selected="yes">
			<act type="home" x="777302" y="5744356" end_time="06:00:00" />
			<leg mode="car" />
			<act type="end" x="790772" y="5752462" />
 		</plan>
 	</person>

	<person id= "121" >
		<plan selected="yes">
			<act type="home" x="777778" y="5743886" end_time="06:00:00" />
			<leg mode="car" />
			<act type="end" x="790772" y="5752462" />
 		</plan>
 	</person>

	<person id= "122" >
		<plan selected="yes">
			<act type="home" x="777778" y="5743886" end_time="06:00:00" />
			<leg mode="car" />
			<act type="end" x="790772" y="5752462" />
 		</plan>
 	</person>

	<person id= "123" >
		<plan selected="yes">
			<act type="home" x="777778" y="5743886" end_time="06:00:00" />
			<leg mode="car" />
			<act type="end" x="790772" y="5752462" />
 		</plan>
 	</person>

	<person id= "124" >
		<plan selected="yes">
			<act type="home" x="777774" y="5743669" end_time="06:00:00" />
			<leg mode="car" />
			<act type="end" x="790772" y="5752462" />
 		</plan>
 	</person>

	<person id= "125" >
		<plan selected="yes">
			<act type="home" x="778483" y="5744475" end_time="06:00:00" />
			<leg mode="car" />
			<act type="end" x="790772" y="5752462" />
 		</plan>
 	</person>

	<person id= "126" >
		<plan selected="yes">
			<act type="home" x="777774" y="5743669" end_time="06:00:00" />
			<leg mode="car" />
			<act type="end" x="790772" y="5752462" />
 		</plan>
 	</person>

	<person id= "127" >
		<plan selected="yes">
			<act type="home" x="777774" y="5743669" end_time="06:00:00" />
			<leg mode="car" />
			<act type="end" x="790772" y="5752462" />
 		</plan>
 	</person>

	<person id= "128" >
		<plan selected="yes">
			<act type="home" x="776933" y="5743589" end_time="06:00:00" />
			<leg mode="car" />
			<act type="end" x="790772" y="5752462" />
 		</plan>
 	</person>

	<person id= "129" >
		<plan selected="yes">
			<act type="home" x="776933" y="5743589" end_time="06:00:00" />
			<leg mode="car" />
			<act type="end" x="790772" y="5752462" />
 		</plan>
 	</person>

	<person id= "130" >
		<plan selected="yes">
			<act type="home" x="776933" y="5743589" end_time="06:00:00" />
			<leg mode="car" />
			<act type="end" x="790772" y="5752462" />
 		</plan>
 	</person>

	<person id= "131" >
		<plan selected="yes">
			<act type="home" x="776933" y="5743589" end_time="06:00:00" />
			<leg mode="car" />
			<act type="end" x="790772" y="5752462" />
 		</plan>
 	</person>

	<person id= "132" >
		<plan selected="yes">
			<act type="home" x="776814" y="5743035" end_time="06:00:00" />
			<leg mode="car" />
			<act type="end" x="790772" y="5752462" />
 		</plan>
 	</person>

	<person id= "133" >
		<plan selected="yes">
			<act type="home" x="776814" y="5743035" end_time="06:00:00" />
			<leg mode="car" />
			<act type="end" x="790772" y="5752462" />
 		</plan>
 	</person>

	<person id= "134" >
		<plan selected="yes">
			<act type="home" x="776814" y="5743035" end_time="06:00:00" />
			<leg mode="car" />
			<act type="end" x="790772" y="5752462" />
 		</plan>
 	</person>

	<person id= "135" >
		<plan selected="yes">
			<act type="home" x="776814" y="5743035" end_time="06:00:00" />
			<leg mode="car" />
			<act type="end" x="790772" y="5752462" />
 		</plan>
 	</person>

	<person id= "136" >
		<plan selected="yes">
			<act type="home" x="776564" y="5744045" end_time="06:00:00" />
			<leg mode="car" />
			<act type="end" x="790772" y="5752462" />
 		</plan>
 	</person>

	<person id= "137" >
		<plan selected="yes">
			<act type="home" x="778503" y="5744483" end_time="06:00:00" />
			<leg mode="car" />
			<act type="end" x="790772" y="5752462" />
 		</plan>
 	</person>

	<person id= "138" >
		<plan selected="yes">
			<act type="home" x="776564" y="5744045" end_time="06:00:00" />
			<leg mode="car" />
			<act type="end" x="790772" y="5752462" />
 		</plan>
 	</person>

	<person id= "139" >
		<plan selected="yes">
			<act type="home" x="776564" y="5744045" end_time="06:00:00" />
			<leg mode="car" />
			<act type="end" x="790772" y="5752462" />
 		</plan>
 	</person>

	<person id= "140" >
		<plan selected="yes">
			<act type="home" x="776589" y="5743710" end_time="06:00:00" />
			<leg mode="car" />
			<act type="end" x="790772" y="5752462" />
 		</plan>
 	</person>

	<person id= "141" >
		<plan selected="yes">
			<act type="home" x="776589" y="5743710" end_time="06:00:00" />
			<leg mode="car" />
			<act type="end" x="790772" y="5752462" />
 		</plan>
 	</person>

	<person id= "142" >
		<plan selected="yes">