<?xml version="1.0" encoding="utf-8"?>
<!DOCTYPE population SYSTEM "http://www.matsim.org/files/dtd/population_v6.dtd">

<population>



<!-- ====================================================================== -->

	<person id="0">
		<plan selected="yes">
			<activity type="home" x="266498.6040945624" y="5906245.90691459" end_time="06:00:00" >
			</activity>
			<leg mode="car">
			</leg>
			<activity type="home" x="266498.6040945624" y="5906245.90691459" >
			</activity>
		</plan>

	</person>

<!-- ====================================================================== -->

	<person id="1">
		<plan selected="yes">
			<activity type="home" x="266267.9890838053" y="5906334.065088333" end_time="06:00:00" >
			</activity>
			<leg mode="car">
			</leg>
			<activity type="home" x="266267.9890838053" y="5906334.065088333" >
			</activity>
		</plan>

	</person>

<!-- ====================================================================== -->

	<person id="10">
		<plan selected="yes">
			<activity type="home" x="265571.9263964665" y="5906464.954054063" end_time="06:00:00" >
			</activity>
			<leg mode="car">
			</leg>
			<activity type="home" x="265571.9263964665" y="5906464.954054063" >
			</activity>
		</plan>

	</person>

<!-- ====================================================================== -->

	<person id="100">
		<plan selected="yes">
			<activity type="home" x="265505.22582892585" y="5906573.624379973" end_time="06:00:00" >
			</activity>
			<leg mode="car">
			</leg>
			<activity type="home" x="265505.22582892585" y="5906573.624379973" >
			</activity>
		</plan>

	</person>

<!-- ====================================================================== -->

	<person id="1000">
		<plan selected="yes">
			<activity type="home" x="266100.39960989787" y="5906198.020466992" end_time="06:00:00" >
			</activity>
			<leg mode="car">
			</leg>
			<activity type="home" x="266100.39960989787" y="5906198.020466992" >
			</activity>
		</plan>

	</person>

<!-- ====================================================================== -->

	<person id="1001">
		<plan selected="yes">
			<activity type="home" x="265661.3707079875" y="5906050.877919001" end_time="06:00:00" >
			</activity>
			<leg mode="car">
			</leg>
			<activity type="home" x="265661.3707079875" y="5906050.877919001" >
			</activity>
		</plan>

	</person>

<!-- ====================================================================== -->

	<person id="1002">
		<plan selected="yes">
			<activity type="home" x="265950.12078638835" y="5906141.716168275" end_time="06:00:00" >
			</activity>
			<leg mode="car">
			</leg>
			<activity type="home" x="265950.12078638835" y="5906141.716168275" >
			</activity>
		</plan>

	</person>

<!-- ====================================================================== -->

	<person id="1003">
		<plan selected="yes">
			<activity type="home" x="265893.81028904964" y="5906095.95577234" end_time="06:00:00" >
			</activity>
			<leg mode="car">
			</leg>
			<activity type="home" x="265893.81028904964" y="5906095.95577234" >
			</activity>
		</plan>

	</person>

<!-- ====================================================================== -->

	<person id="1004">
		<plan selected="yes">
			<activity type="home" x="266176.0255583127" y="5906034.669886675" end_time="06:00:00" >
			</activity>
			<leg mode="car">
			</leg>
			<activity type="home" x="266176.0255583127" y="5906034.669886675" >
			</activity>
		</plan>

	</person>

<!-- ====================================================================== -->

	<person id="1005">
		<plan selected="yes">
			<activity type="home" x="266458.345279082" y="5906019.048656161" end_time="06:00:00" >
			</activity>
			<leg mode="car">
			</leg>
			<activity type="home" x="266458.345279082" y="5906019.048656161" >
			</activity>
		</plan>

	</person>

<!-- ====================================================================== -->

	<person id="1006">
		<plan selected="yes">
			<activity type="home" x="265574.9745860211" y="5906204.646336767" end_time="06:00:00" >
			</activity>
			<leg mode="car">
			</leg>
			<activity type="home" x="265574.9745860211" y="5906204.646336767" >
			</activity>
		</plan>

	</person>

<!-- ====================================================================== -->

	<person id="1007">
		<plan selected="yes">
			<activity type="home" x="265968.7016800434" y="5906355.131454757" end_time="06:00:00" >
			</activity>
			<leg mode="car">
			</leg>
			<activity type="home" x="265968.7016800434" y="5906355.131454757" >
			</activity>
		</plan>

	</person>

<!-- ====================================================================== -->

	<person id="1008">
		<plan selected="yes">
			<activity type="home" x="265886.7790923391" y="5905982.306260972" end_time="06:00:00" >
			</activity>
			<leg mode="car">
			</leg>
			<activity type="home" x="265886.7790923391" y="5905982.306260972" >
			</activity>
		</plan>

	</person>

<!-- ====================================================================== -->

	<person id="1009">
		<plan selected="yes">
			<activity type="home" x="265894.227004776" y="5906139.199315652" end_time="06:00:00" >
			</activity>
			<leg mode="car">
			</leg>
			<activity type="home" x="265894.227004776" y="5906139.199315652" >
			</activity>
		</plan>

	</person>

<!-- ====================================================================== -->

	<person id="101">
		<plan selected="yes">
			<activity type="home" x="266431.35115750215" y="5906331.9563239785" end_time="06:00:00" >
			</activity>
			<leg mode="car">
			</leg>
			<activity type="home" x="266431.35115750215" y="5906331.9563239785" >
			</activity>
		</plan>

	</person>

<!-- ====================================================================== -->

	<person id="1010">
		<plan selected="yes">
			<activity type="home" x="265604.30737138906" y="5906228.728057388" end_time="06:00:00" >
			</activity>
			<leg mode="car">
			</leg>
			<activity type="home" x="265604.30737138906" y="5906228.728057388" >
			</activity>
		</plan>

	</person>

<!-- ====================================================================== -->

	<person id="1011">
		<plan selected="yes">
			<activity type="home" x="266317.41611882456" y="5906326.835055728" end_time="06:00:00" >
			</activity>
			<leg mode="car">
			</leg>
			<activity type="home" x="266317.41611882456" y="5906326.835055728" >
			</activity>
		</plan>

	</person>

<!-- ====================================================================== -->

	<person id="1012">
		<plan selected="yes">
			<activity type="home" x="266285.2479439894" y="5906397.857715622" end_time="06:00:00" >
			</activity>
			<leg mode="car">
			</leg>
			<activity type="home" x="266285.2479439894" y="5906397.857715622" >
			</activity>
		</plan>

	</person>

<!-- ====================================================================== -->

	<person id="1013">
		<plan selected="yes">
			<activity type="home" x="265953.340159598" y="5906144.501747134" end_time="06:00:00" >
			</activity>
			<leg mode="car">
			</leg>
			<activity type="home" x="265953.340159598" y="5906144.501747134" >
			</activity>
		</plan>

	</person>

<!-- ====================================================================== -->

	<person id="1014">
		<plan selected="yes">
			<activity type="home" x="265556.4697834873" y="5906256.742163233" end_time="06:00:00" >
			</activity>
			<leg mode="car">
			</leg>
			<activity type="home" x="265556.4697834873" y="5906256.742163233" >
			</activity>
		</plan>

	</person>

<!-- ====================================================================== -->

	<person id="1015">
		<plan selected="yes">
			<activity type="home" x="265774.38852852077" y="5906559.748040722" end_time="06:00:00" >
			</activity>
			<leg mode="car">
			</leg>
			<activity type="home" x="265774.38852852077" y="5906559.748040722" >
			</activity>
		</plan>

	</person>

<!-- ====================================================================== -->

	<person id="1016">
		<plan selected="yes">
			<activity type="home" x="266137.63476287434" y="5906205.1606253525" end_time="06:00:00" >
			</activity>
			<leg mode="car">
			</leg>
			<activity type="home" x="266137.63476287434" y="5906205.1606253525" >
			</activity>
		</plan>

	</person>

<!-- ====================================================================== -->

	<person id="1017">
		<plan selected="yes">
			<activity type="home" x="266315.19427359774" y="5906240.287738531" end_time="06:00:00" >
			</activity>
			<leg mode="car">
			</leg>
			<activity type="home" x="266315.19427359774" y="5906240.287738531" >
			</activity>
		</plan>

	</person>

<!-- ====================================================================== -->

	<person id="1018">
		<plan selected="yes">
			<activity type="home" x="265631.15449234395" y="5906122.926189671" end_time="06:00:00" >
			</activity>
			<leg mode="car">
			</leg>
			<activity type="home" x="265631.15449234395" y="5906122.926189671" >
			</activity>
		</plan>

	</person>

<!-- ====================================================================== -->

	<person id="1019">
		<plan selected="yes">
			<activity type="home" x="265827.1034516196" y="5906603.717431842" end_time="06:00:00" >
			</activity>
			<leg mode="car">
			</leg>
			<activity type="home" x="265827.1034516196" y="5906603.717431842" >
			</activity>
		</plan>

	</person>

<!-- ====================================================================== -->

	<person id="102">
		<plan selected="yes">
			<activity type="home" x="266511.4490630628" y="5906514.715775573" end_time="06:00:00" >
			</activity>
			<leg mode="car">
			</leg>
			<activity type="home" x="266511.4490630628" y="5906514.715775573" >
			</activity>
		</plan>

	</person>

<!-- ====================================================================== -->

	<person id="1020">
		<plan selected="yes">
			<activity type="home" x="265661.08085790195" y="5906291.903436373" end_time="06:00:00" >
			</activity>
			<leg mode="car">
			</leg>
			<activity type="home" x="265661.08085790195" y="5906291.903436373" >
			</activity>
		</plan>

	</person>

<!-- ====================================================================== -->

	<person id="1021">
		<plan selected="yes">
			<activity type="home" x="266496.23563317227" y="5906116.081426462" end_time="06:00:00" >
			</activity>
			<leg mode="car">
			</leg>
			<activity type="home" x="266496.23563317227" y="5906116.081426462" >
			</activity>
		</plan>

	</person>

<!-- ====================================================================== -->

	<person id="1022">
		<plan selected="yes">
			<activity type="home" x="266077.38590068725" y="5906530.991420908" end_time="06:00:00" >
			</activity>
			<leg mode="car">
			</leg>
			<activity type="home" x="266077.38590068725" y="5906530.991420908" >
			</activity>
		</plan>

	</person>

<!-- ====================================================================== -->

	<person id="1023">
		<plan selected="yes">
			<activity type="home" x="266027.55019994336" y="5906370.621751936" end_time="06:00:00" >
			</activity>
			<leg mode="car">
			</leg>
			<activity type="home" x="266027.55019994336" y="5906370.621751936" >
			</activity>
		</plan>

	</person>

<!-- ====================================================================== -->

	<person id="1024">
		<plan selected="yes">
			<activity type="home" x="266104.45616229816" y="5906503.37561855" end_time="06:00:00" >
			</activity>
			<leg mode="car">
			</leg>
			<activity type="home" x="266104.45616229816" y="5906503.37561855" >
			</activity>
		</plan>

	</person>

<!-- ====================================================================== -->

	<person id="1025">
		<plan selected="yes">
			<activity type="home" x="265841.3957102783" y="5906247.246183538" end_time="06:00:00" >
			</activity>
			<leg mode="car">
			</leg>
			<activity type="home" x="265841.3957102783" y="5906247.246183538" >
			</activity>
		</plan>

	</person>

<!-- ====================================================================== -->

	<person id="1026">
		<plan selected="yes">
			<activity type="home" x="265959.3095012788" y="5906670.4763293825" end_time="06:00:00" >
			</activity>
			<leg mode="car">
			</leg>
			<activity type="home" x="265959.3095012788" y="5906670.4763293825" >
			</activity>
		</plan>

	</person>

<!-- ====================================================================== -->

	<person id="1027">
		<plan selected="yes">
			<activity type="home" x="265464.42135830683" y="5906028.655832377" end_time="06:00:00" >
			</activity>
			<leg mode="car">
			</leg>
			<activity type="home" x="265464.42135830683" y="5906028.655832377" >
			</activity>
		</plan>

	</person>

<!-- ====================================================================== -->

	<person id="1028">
		<plan selected="yes">
			<activity type="home" x="265754.69167915697" y="5906400.824950577" end_time="06:00:00" >
			</activity>
			<leg mode="car">
			</leg>
			<activity type="home" x="265754.69167915697" y="5906400.824950577" >
			</activity>
		</plan>

	</person>

<!-- ====================================================================== -->

	<person id="1029">
		<plan selected="yes">
			<activity type="home" x="266567.45971563924" y="5906093.673837922" end_time="06:00:00" >
			</activity>
			<leg mode="car">
			</leg>
			<activity type="home" x="266567.45971563924" y="5906093.673837922" >
			</activity>
		</plan>

	</person>

<!-- ====================================================================== -->

	<person id="103">
		<plan selected="yes">
			<activity type="home" x="266503.4837278379" y="5906256.540066187" end_time="06:00:00" >
			</activity>
			<leg mode="car">
			</leg>
			<activity type="home" x="266503.4837278379" y="5906256.540066187" >
			</activity>
		</plan>

	</person>

<!-- ====================================================================== -->

	<person id="1030">
		<plan selected="yes">
			<activity type="home" x="266448.4721452581" y="5906284.112408254" end_time="06:00:00" >
			</activity>
			<leg mode="car">
			</leg>
			<activity type="home" x="266448.4721452581" y="5906284.112408254" >
			</activity>
		</plan>

	</person>

<!-- ====================================================================== -->

	<person id="1031">
		<plan selected="yes">
			<activity type="home" x="265964.85529845185" y="5906163.663024776" end_time="06:00:00" >
			</activity>
			<leg mode="car">
			</leg>
			<activity type="home" x="265964.85529845185" y="5906163.663024776" >
			</activity>
		</plan>

	</person>

<!-- ====================================================================== -->

	<person id="1032">
		<plan selected="yes">
			<activity type="home" x="265563.91872101737" y="5906060.6448970325" end_time="06:00:00" >
			</activity>
			<leg mode="car">
			</leg>
			<activity type="home" x="265563.91872101737" y="5906060.6448970325" >
			</activity>
		</plan>

	</person>

<!-- ====================================================================== -->

	<person id="1033">
		<plan selected="yes">
			<activity type="home" x="265993.83258927317" y="5906612.064641209" end_time="06:00:00" >
			</activity>
			<leg mode="car">
			</leg>
			<activity type="home" x="265993.83258927317" y="5906612.064641209" >
			</activity>
		</plan>

	</person>

<!-- ====================================================================== -->

	<person id="1034">
		<plan selected="yes">
			<activity type="home" x="265878.1570044382" y="5906207.2976948675" end_time="06:00:00" >
			</activity>
			<leg mode="car">
			</leg>
			<activity type="home" x="265878.1570044382" y="5906207.2976948675" >
			</activity>
		</plan>

	</person>

<!-- ====================================================================== -->

	<person id="1035">
		<plan selected="yes">
			<activity type="home" x="266534.5937589783" y="5906152.530737154" end_time="06:00:00" >
			</activity>
			<leg mode="car">
			</leg>
			<activity type="home" x="266534.5937589783" y="5906152.530737154" >
			</activity>
		</plan>

	</person>

<!-- ====================================================================== -->

	<person id="1036">
		<plan selected="yes">
			<activity type="home" x="265619.71530992416" y="5906618.406853209" end_time="06:00:00" >
			</activity>
			<leg mode="car">
			</leg>
			<activity type="home" x="265619.71530992416" y="5906618.406853209" >
			</activity>
		</plan>

	</person>

<!-- ====================================================================== -->

	<person id="1037">
		<plan selected="yes">
			<activity type="home" x="266042.4603749717" y="5906276.921539958" end_time="06:00:00" >
			</activity>
			<leg mode="car">
			</leg>
			<activity type="home" x="266042.4603749717" y="5906276.921539958" >
			</activity>
		</plan>

	</person>

<!-- ====================================================================== -->

	<person id="1038">
		<plan selected="yes">
			<activity type="home" x="266354.96132414736" y="5906271.846668198" end_time="06:00:00" >
			</activity>
			<leg mode="car">
			</leg>
			<activity type="home" x="266354.96132414736" y="5906271.846668198" >
			</activity>
		</plan>

	</person>

<!-- ====================================================================== -->

	<person id="1039">
		<plan selected="yes">
			<activity type="home" x="266411.77030211024" y="5906451.301046266" end_time="06:00:00" >
			</activity>
			<leg mode="car">
			</leg>
			<activity type="home" x="266411.77030211024" y="5906451.301046266" >
			</activity>
		</plan>

	</person>

<!-- ====================================================================== -->

	<person id="104">
		<plan selected="yes">
			<activity type="home" x="266542.0620310475" y="5906355.198584304" end_time="06:00:00" >
			</activity>
			<leg mode="car">
			</leg>
			<activity type="home" x="266542.0620310475" y="5906355.198584304" >
			</activity>
		</plan>

	</person>

<!-- ====================================================================== -->

	<person id="1040">
		<plan selected="yes">
			<activity type="home" x="266240.3836313108" y="5906473.138381538" end_time="06:00:00" >
			</activity>
			<leg mode="car">
			</leg>
			<activity type="home" x="266240.3836313108" y="5906473.138381538" >
			</activity>
		</plan>

	</person>

<!-- ====================================================================== -->

	<person id="1041">
		<plan selected="yes">
			<activity type="home" x="265609.38882201083" y="5906325.673902288" end_time="06:00:00" >
			</activity>
			<leg mode="car">
			</leg>
			<activity type="home" x="265609.38882201083" y="5906325.673902288" >
			</activity>
		</plan>

	</person>

<!-- ====================================================================== -->

	<person id="1042">
		<plan selected="yes">
			<activity type="home" x="265670.0038043108" y="5906502.1811836315" end_time="06:00:00" >
			</activity>
			<leg mode="car">
			</leg>
			<activity type="home" x="265670.0038043108" y="5906502.1811836315" >
			</activity>
		</plan>

	</person>

<!-- ====================================================================== -->

	<person id="1043">
		<plan selected="yes">
			<activity type="home" x="265656.5409658203" y="5906609.067317071" end_time="06:00:00" >
			</activity>
			<leg mode="car">
			</leg>
			<activity type="home" x="265656.5409658203" y="5906609.067317071" >
			</activity>
		</plan>

	</person>

<!-- ====================================================================== -->

	<person id="1044">
		<plan selected="yes">
			<activity type="home" x="266064.0972018475" y="5906206.213508332" end_time="06:00:00" >
			</activity>
			<leg mode="car">
			</leg>
			<activity type="home" x="266064.0972018475" y="5906206.213508332" >
			</activity>
		</plan>

	</person>

<!-- ====================================================================== -->

	<person id="1045">
		<plan selected="yes">
			<activity type="home" x="265649.696879344" y="5906124.1875087805" end_time="06:00:00" >
			</activity>
			<leg mode="car">
			</leg>
			<activity type="home" x="265649.696879344" y="5906124.1875087805" >
			</activity>
		</plan>

	</person>

<!-- ====================================================================== -->

	<person id="1046">
		<plan selected="yes">
			<activity type="home" x="266624.8066167382" y="5906527.108518819" end_time="06:00:00" >
			</activity>
			<leg mode="car">
			</leg>
			<activity type="home" x="266624.8066167382" y="5906527.108518819" >
			</activity>
		</plan>

	</person>

<!-- ====================================================================== -->

	<person id="1047">
		<plan selected="yes">
			<activity type="home" x="265985.275995483" y="5906514.410068169" end_time="06:00:00" >
			</activity>
			<leg mode="car">
			</leg>
			<activity type="home" x="265985.275995483" y="5906514.410068169" >
			</activity>
		</plan>

	</person>

<!-- ====================================================================== -->

	<person id="1048">
		<plan selected="yes">
			<activity type="home" x="265633.90210409096" y="5906223.18621551" end_time="06:00:00" >
			</activity>
			<leg mode="car">
			</leg>
			<activity type="home" x="265633.90210409096" y="5906223.18621551" >
			</activity>
		</plan>

	</person>

<!-- ====================================================================== -->

	<person id="1049">
		<plan selected="yes">
			<activity type="home" x="266071.4638008659" y="5906172.177295654" end_time="06:00:00" >
			</activity>
			<leg mode="car">
			</leg>
			<activity type="home" x="266071.4638008659" y="5906172.177295654" >
			</activity>
		</plan>

	</person>

<!-- ====================================================================== -->

	<person id="105">
		<plan selected="yes">
			<activity type="home" x="265513.9066922224" y="5906273.211848572" end_time="06:00:00" >
			</activity>
			<leg mode="car">
			</leg>
			<activity type="home" x="265513.9066922224" y="5906273.211848572" >
			</activity>
		</plan>

	</person>

<!-- ====================================================================== -->

	<person id="1050">
		<plan selected="yes">
			<activity type="home" x="266367.70210623444" y="5906609.608587251" end_time="06:00:00" >
			</activity>
			<leg mode="car">
			</leg>
			<activity type="home" x="266367.70210623444" y="5906609.608587251" >
			</activity>
		</plan>

	</person>

<!-- ====================================================================== -->

	<person id="1051">
		<plan selected="yes">
			<activity type="home" x="266051.4630420186" y="5906654.466053577" end_time="06:00:00" >
			</activity>
			<leg mode="car">
			</leg>
			<activity type="home" x="266051.4630420186" y="5906654.466053577" >
			</activity>
		</plan>

	</person>

<!-- ====================================================================== -->

	<person id="1052">
		<plan selected="yes">
			<activity type="home" x="265914.1115102933" y="5906203.910016842" end_time="06:00:00" >
			</activity>
			<leg mode="car">
			</leg>
			<activity type="home" x="265914.1115102933" y="5906203.910016842" >
			</activity>
		</plan>

	</person>

<!-- ====================================================================== -->

	<person id="1053">
		<plan selected="yes">
			<activity type="home" x="266094.05161767226" y="5906500.365359955" end_time="06:00:00" >
			</activity>
			<leg mode="car">
			</leg>
			<activity type="home" x="266094.05161767226" y="5906500.365359955" >
			</activity>
		</plan>

	</person>

<!-- ====================================================================== -->

	<person id="1054">
		<plan selected="yes">
			<activity type="home" x="265482.3868335616" y="5906300.237416736" end_time="06:00:00" >
			</activity>
			<leg mode="car">
			</leg>
			<activity type="home" x="265482.3868335616" y="5906300.237416736" >
			</activity>
		</plan>

	</person>

<!-- ====================================================================== -->

	<person id="1055">
		<plan selected="yes">
			<activity type="home" x="266201.89760458545" y="5906594.517376163" end_time="06:00:00" >
			</activity>
			<leg mode="car">
			</leg>
			<activity type="home" x="266201.89760458545" y="5906594.517376163" >
			</activity>
		</plan>

	</person>

<!-- ====================================================================== -->

	<person id="1056">
		<plan selected="yes">
			<activity type="home" x="266133.4596004144" y="5906606.1881374335" end_time="06:00:00" >
			</activity>
			<leg mode="car">
			</leg>
			<activity type="home" x="266133.4596004144" y="5906606.1881374335" >
			</activity>
		</plan>

	</person>

<!-- ====================================================================== -->

	<person id="1057">
		<plan selected="yes">
			<activity type="home" x="266526.1376740726" y="5906071.8311449615" end_time="06:00:00" >
			</activity>
			<leg mode="car">
			</leg>
			<activity type="home" x="266526.1376740726" y="5906071.8311449615" >
			</activity>
		</plan>

	</person>

<!-- ====================================================================== -->

	<person id="1058">
		<plan selected="yes">
			<activity type="home" x="265877.73163812136" y="5906642.311212067" end_time="06:00:00" >
			</activity>
			<leg mode="car">
			</leg>
			<activity type="home" x="265877.73163812136" y="5906642.311212067" >
			</activity>
		</plan>

	</person>

<!-- ====================================================================== -->

	<person id="1059">
		<plan selected="yes">
			<activity type="home" x="265763.7738950933" y="5906478.7017160915" end_time="06:00:00" >
			</activity>
			<leg mode="car">
			</leg>
			<activity type="home" x="265763.7738950933" y="5906478.7017160915" >
			</activity>
		</plan>

	</person>

<!-- ====================================================================== -->

	<person id="106">
		<plan selected="yes">
			<activity type="home" x="265957.79936883616" y="5906240.00675927" end_time="06:00:00" >
			</activity>
			<leg mode="car">
			</leg>
			<activity type="home" x="265957.79936883616" y="5906240.00675927" >
			</activity>
		</plan>

	</person>

<!-- ====================================================================== -->

	<person id="1060">
		<plan selected="yes">
			<activity type="home" x="266230.36988582235" y="5906514.664901286" end_time="06:00:00" >
			</activity>
			<leg mode="car">
			</leg>
			<activity type="home" x="266230.36988582235" y="5906514.664901286" >
			</activity>
		</plan>

	</person>

<!-- ====================================================================== -->

	<person id="1061">
		<plan selected="yes">
			<activity type="home" x="266259.0026379507" y="5906454.668601475" end_time="06:00:00" >
			</activity>
			<leg mode="car">
			</leg>
			<activity type="home" x="266259.0026379507" y="5906454.668601475" >
			</activity>
		</plan>

	</person>

<!-- ====================================================================== -->

	<person id="1062">
		<plan selected="yes">
			<activity type="home" x="266127.4976106845" y="5906522.173411875" end_time="06:00:00" >
			</activity>
			<leg mode="car">
			</leg>
			<activity type="home" x="266127.4976106845" y="5906522.173411875" >
			</activity>
		</plan>

	</person>

<!-- ====================================================================== -->

	<person id="1063">
		<plan selected="yes">
			<activity type="home" x="266131.2724287494" y="5906069.066567163" end_time="06:00:00" >
			</activity>
			<leg mode="car">
			</leg>
			<activity type="home" x="266131.2724287494" y="5906069.066567163" >
			</activity>
		</plan>

	</person>

<!-- ====================================================================== -->

	<person id="1064">
		<plan selected="yes">
			<activity type="home" x="265975.84676519537" y="5906379.069763842" end_time="06:00:00" >
			</activity>
			<leg mode="car">
			</leg>
			<activity type="home" x="265975.84676519537" y="5906379.069763842" >
			</activity>
		</plan>

	</person>

<!-- ====================================================================== -->

	<person id="1065">
		<plan selected="yes">
			<activity type="home" x="266097.00595857645" y="5906254.921993763" end_time="06:00:00" >
			</activity>
			<leg mode="car">
			</leg>
			<activity type="home" x="266097.00595857645" y="5906254.921993763" >
			</activity>
		</plan>

	</person>

<!-- ====================================================================== -->

	<person id="1066">
		<plan selected="yes">
			<activity type="home" x="266135.2370330067" y="5906669.935459692" end_time="06:00:00" >
			</activity>
			<leg mode="car">
			</leg>
			<activity type="home" x="266135.2370330067" y="5906669.935459692" >
			</activity>
		</plan>

	</person>

<!-- ====================================================================== -->

	<person id="1067">
		<plan selected="yes">
			<activity type="home" x="265640.55629131146" y="5906484.389296295" end_time="06:00:00" >
			</activity>
			<leg mode="car">
			</leg>
			<activity type="home" x="265640.55629131146" y="5906484.389296295" >
			</activity>
		</plan>

	</person>

<!-- ====================================================================== -->

	<person id="1068">
		<plan selected="yes">
			<activity type="home" x="265462.6858316871" y="5906686.141943323" end_time="06:00:00" >
			</activity>
			<leg mode="car">
			</leg>
			<activity type="home" x="265462.6858316871" y="5906686.141943323" >
			</activity>
		</plan>

	</person>

<!-- ====================================================================== -->

	<person id="1069">
		<plan selected="yes">
			<activity type="home" x="265767.4956571142" y="5906535.468886014" end_time="06:00:00" >
			</activity>
			<leg mode="car">
			</leg>
			<activity type="home" x="265767.4956571142" y="5906535.468886014" >
			</activity>
		</plan>

	</person>

<!-- ====================================================================== -->

	<person id="107">
		<plan selected="yes">