<?xml version="1.0" encoding="utf-8"?>
<!DOCTYPE population SYSTEM "http://www.matsim.org/files/dtd/population_v6.dtd">

<population>



<!-- ====================================================================== -->

	<person id="0">
		<plan selected="yes">
			<activity type="home" x="532164.6008599814" y="6131675.404028329" end_time="06:00:00" >
			</activity>
			<leg mode="car">
			</leg>
			<activity type="home" x="532164.6008599814" y="6131675.404028329" >
			</activity>
		</plan>

	</person>

<!-- ====================================================================== -->

	<person id="1">
		<plan selected="yes">
			<activity type="home" x="532336.3388426013" y="6130671.992771124" end_time="06:00:00" >
			</activity>
			<leg mode="car">
			</leg>
			<activity type="home" x="532336.3388426013" y="6130671.992771124" >
			</activity>
		</plan>

	</person>

<!-- ====================================================================== -->

	<person id="10">
		<plan selected="yes">
			<activity type="home" x="531636.2072456091" y="6130829.721354479" end_time="06:00:00" >
			</activity>
			<leg mode="car">
			</leg>
			<activity type="home" x="531636.2072456091" y="6130829.721354479" >
			</activity>
		</plan>

	</person>

<!-- ====================================================================== -->

	<person id="100">
		<plan selected="yes">
			<activity type="home" x="532161.303127817" y="6131056.831657978" end_time="06:00:00" >
			</activity>
			<leg mode="car">
			</leg>
			<activity type="home" x="532161.303127817" y="6131056.831657978" >
			</activity>
		</plan>

	</person>

<!-- ====================================================================== -->

	<person id="101">
		<plan selected="yes">
			<activity type="home" x="533158.649067857" y="6131371.982797061" end_time="06:00:00" >
			</activity>
			<leg mode="car">
			</leg>
			<activity type="home" x="533158.649067857" y="6131371.982797061" >
			</activity>
		</plan>

	</person>

<!-- ====================================================================== -->

	<person id="102">
		<plan selected="yes">
			<activity type="home" x="532847.562699991" y="6130853.445784025" end_time="06:00:00" >
			</activity>
			<leg mode="car">
			</leg>
			<activity type="home" x="532847.562699991" y="6130853.445784025" >
			</activity>
		</plan>

	</person>

<!-- ====================================================================== -->

	<person id="103">
		<plan selected="yes">
			<activity type="home" x="532126.3364815088" y="6131006.1591802435" end_time="06:00:00" >
			</activity>
			<leg mode="car">
			</leg>
			<activity type="home" x="532126.3364815088" y="6131006.1591802435" >
			</activity>
		</plan>

	</person>

<!-- ====================================================================== -->

	<person id="104">
		<plan selected="yes">
			<activity type="home" x="533257.8791956318" y="6131552.369662645" end_time="06:00:00" >
			</activity>
			<leg mode="car">
			</leg>
			<activity type="home" x="533257.8791956318" y="6131552.369662645" >
			</activity>
		</plan>

	</person>

<!-- ====================================================================== -->

	<person id="105">
		<plan selected="yes">
			<activity type="home" x="531945.9576646672" y="6130763.317807105" end_time="06:00:00" >
			</activity>
			<leg mode="car">
			</leg>
			<activity type="home" x="531945.9576646672" y="6130763.317807105" >
			</activity>
		</plan>

	</person>

<!-- ====================================================================== -->

	<person id="106">
		<plan selected="yes">
			<activity type="home" x="532387.0845893387" y="6131507.201536475" end_time="06:00:00" >
			</activity>
			<leg mode="car">
			</leg>
			<activity type="home" x="532387.0845893387" y="6131507.201536475" >
			</activity>
		</plan>

	</person>

<!-- ====================================================================== -->

	<person id="107">
		<plan selected="yes">
			<activity type="home" x="533138.2177495587" y="6131195.335001451" end_time="06:00:00" >
			</activity>
			<leg mode="car">
			</leg>
			<activity type="home" x="533138.2177495587" y="6131195.335001451" >
			</activity>
		</plan>

	</person>

<!-- ====================================================================== -->

	<person id="108">
		<plan selected="yes">
			<activity type="home" x="531541.3012222674" y="6131633.170477874" end_time="06:00:00" >
			</activity>
			<leg mode="car">
			</leg>
			<activity type="home" x="531541.3012222674" y="6131633.170477874" >
			</activity>
		</plan>

	</person>

<!-- ====================================================================== -->

	<person id="109">
		<plan selected="yes">
			<activity type="home" x="532973.0625378464" y="6131076.395233277" end_time="06:00:00" >
			</activity>
			<leg mode="car">
			</leg>
			<activity type="home" x="532973.0625378464" y="6131076.395233277" >
			</activity>
		</plan>

	</person>

<!-- ====================================================================== -->

	<person id="11">
		<plan selected="yes">
			<activity type="home" x="532374.6802366435" y="6130265.631565684" end_time="06:00:00" >
			</activity>
			<leg mode="car">
			</leg>
			<activity type="home" x="532374.6802366435" y="6130265.631565684" >
			</activity>
		</plan>

	</person>

<!-- ====================================================================== -->

	<person id="110">
		<plan selected="yes">
			<activity type="home" x="531943.1615685849" y="6131036.001198282" end_time="06:00:00" >
			</activity>
			<leg mode="car">
			</leg>
			<activity type="home" x="531943.1615685849" y="6131036.001198282" >
			</activity>
		</plan>

	</person>

<!-- ====================================================================== -->

	<person id="111">
		<plan selected="yes">
			<activity type="home" x="531806.5081466077" y="6131878.564237626" end_time="06:00:00" >
			</activity>
			<leg mode="car">
			</leg>
			<activity type="home" x="531806.5081466077" y="6131878.564237626" >
			</activity>
		</plan>

	</person>

<!-- ====================================================================== -->

	<person id="112">
		<plan selected="yes">
			<activity type="home" x="532321.5237016878" y="6131549.120526732" end_time="06:00:00" >
			</activity>
			<leg mode="car">
			</leg>
			<activity type="home" x="532321.5237016878" y="6131549.120526732" >
			</activity>
		</plan>

	</person>

<!-- ====================================================================== -->

	<person id="113">
		<plan selected="yes">
			<activity type="home" x="531855.9566643236" y="6131596.796862666" end_time="06:00:00" >
			</activity>
			<leg mode="car">
			</leg>
			<activity type="home" x="531855.9566643236" y="6131596.796862666" >
			</activity>
		</plan>

	</person>

<!-- ====================================================================== -->

	<person id="114">
		<plan selected="yes">
			<activity type="home" x="531737.8146227397" y="6130642.679952705" end_time="06:00:00" >
			</activity>
			<leg mode="car">
			</leg>
			<activity type="home" x="531737.8146227397" y="6130642.679952705" >
			</activity>
		</plan>

	</person>

<!-- ====================================================================== -->

	<person id="115">
		<plan selected="yes">
			<activity type="home" x="533284.4809713934" y="6131790.880156767" end_time="06:00:00" >
			</activity>
			<leg mode="car">
			</leg>
			<activity type="home" x="533284.4809713934" y="6131790.880156767" >
			</activity>
		</plan>

	</person>

<!-- ====================================================================== -->

	<person id="116">
		<plan selected="yes">
			<activity type="home" x="533210.6298718381" y="6130793.386986062" end_time="06:00:00" >
			</activity>
			<leg mode="car">
			</leg>
			<activity type="home" x="533210.6298718381" y="6130793.386986062" >
			</activity>
		</plan>

	</person>

<!-- ====================================================================== -->

	<person id="117">
		<plan selected="yes">
			<activity type="home" x="532358.3811447957" y="6130489.825674947" end_time="06:00:00" >
			</activity>
			<leg mode="car">
			</leg>
			<activity type="home" x="532358.3811447957" y="6130489.825674947" >
			</activity>
		</plan>

	</person>

<!-- ====================================================================== -->

	<person id="118">
		<plan selected="yes">
			<activity type="home" x="532150.5449077568" y="6131724.668447981" end_time="06:00:00" >
			</activity>
			<leg mode="car">
			</leg>
			<activity type="home" x="532150.5449077568" y="6131724.668447981" >
			</activity>
		</plan>

	</person>

<!-- ====================================================================== -->

	<person id="119">
		<plan selected="yes">
			<activity type="home" x="531657.1968112887" y="6131197.3996237945" end_time="06:00:00" >
			</activity>
			<leg mode="car">
			</leg>
			<activity type="home" x="531657.1968112887" y="6131197.3996237945" >
			</activity>
		</plan>

	</person>

<!-- ====================================================================== -->

	<person id="12">
		<plan selected="yes">
			<activity type="home" x="532883.3898039334" y="6131479.311837543" end_time="06:00:00" >
			</activity>
			<leg mode="car">
			</leg>
			<activity type="home" x="532883.3898039334" y="6131479.311837543" >
			</activity>
		</plan>

	</person>

<!-- ====================================================================== -->

	<person id="120">
		<plan selected="yes">
			<activity type="home" x="532010.5534899218" y="6130981.043733349" end_time="06:00:00" >
			</activity>
			<leg mode="car">
			</leg>
			<activity type="home" x="532010.5534899218" y="6130981.043733349" >
			</activity>
		</plan>

	</person>

<!-- ====================================================================== -->

	<person id="121">
		<plan selected="yes">
			<activity type="home" x="531563.9504763307" y="6131773.348214022" end_time="06:00:00" >
			</activity>
			<leg mode="car">
			</leg>
			<activity type="home" x="531563.9504763307" y="6131773.348214022" >
			</activity>
		</plan>

	</person>

<!-- ====================================================================== -->

	<person id="122">
		<plan selected="yes">
			<activity type="home" x="532229.7727482821" y="6130887.288580233" end_time="06:00:00" >
			</activity>
			<leg mode="car">
			</leg>
			<activity type="home" x="532229.7727482821" y="6130887.288580233" >
			</activity>
		</plan>

	</person>

<!-- ====================================================================== -->

	<person id="123">
		<plan selected="yes">
			<activity type="home" x="533253.2773153816" y="6130487.809626468" end_time="06:00:00" >
			</activity>
			<leg mode="car">
			</leg>
			<activity type="home" x="533253.2773153816" y="6130487.809626468" >
			</activity>
		</plan>

	</person>

<!-- ====================================================================== -->

	<person id="124">
		<plan selected="yes">
			<activity type="home" x="531304.5614128115" y="6131411.37403681" end_time="06:00:00" >
			</activity>
			<leg mode="car">
			</leg>
			<activity type="home" x="531304.5614128115" y="6131411.37403681" >
			</activity>
		</plan>

	</person>

<!-- ====================================================================== -->

	<person id="125">
		<plan selected="yes">
			<activity type="home" x="532770.8713517115" y="6130511.109152441" end_time="06:00:00" >
			</activity>
			<leg mode="car">
			</leg>
			<activity type="home" x="532770.8713517115" y="6130511.109152441" >
			</activity>
		</plan>

	</person>

<!-- ====================================================================== -->

	<person id="126">
		<plan selected="yes">
			<activity type="home" x="531907.9601378398" y="6130142.227999032" end_time="06:00:00" >
			</activity>
			<leg mode="car">
			</leg>
			<activity type="home" x="531907.9601378398" y="6130142.227999032" >
			</activity>
		</plan>

	</person>

<!-- ====================================================================== -->

	<person id="127">
		<plan selected="yes">
			<activity type="home" x="532811.7550359442" y="6131039.963183459" end_time="06:00:00" >
			</activity>
			<leg mode="car">
			</leg>
			<activity type="home" x="532811.7550359442" y="6131039.963183459" >
			</activity>
		</plan>

	</person>

<!-- ====================================================================== -->

	<person id="128">
		<plan selected="yes">
			<activity type="home" x="532596.3081458102" y="6131488.757495625" end_time="06:00:00" >
			</activity>
			<leg mode="car">
			</leg>
			<activity type="home" x="532596.3081458102" y="6131488.757495625" >
			</activity>
		</plan>

	</person>

<!-- ====================================================================== -->

	<person id="129">
		<plan selected="yes">
			<activity type="home" x="532153.3545085381" y="6130168.523496684" end_time="06:00:00" >
			</activity>
			<leg mode="car">
			</leg>
			<activity type="home" x="532153.3545085381" y="6130168.523496684" >
			</activity>
		</plan>

	</person>

<!-- ====================================================================== -->

	<person id="13">
		<plan selected="yes">
			<activity type="home" x="531704.1009786493" y="6131653.526614684" end_time="06:00:00" >
			</activity>
			<leg mode="car">
			</leg>
			<activity type="home" x="531704.1009786493" y="6131653.526614684" >
			</activity>
		</plan>

	</person>

<!-- ====================================================================== -->

	<person id="130">
		<plan selected="yes">
			<activity type="home" x="531533.5381697743" y="6131312.681125157" end_time="06:00:00" >
			</activity>
			<leg mode="car">
			</leg>
			<activity type="home" x="531533.5381697743" y="6131312.681125157" >
			</activity>
		</plan>

	</person>

<!-- ====================================================================== -->

	<person id="131">
		<plan selected="yes">
			<activity type="home" x="532922.0025729154" y="6130638.396768947" end_time="06:00:00" >
			</activity>
			<leg mode="car">
			</leg>
			<activity type="home" x="532922.0025729154" y="6130638.396768947" >
			</activity>
		</plan>

	</person>

<!-- ====================================================================== -->

	<person id="132">
		<plan selected="yes">
			<activity type="home" x="532842.341730046" y="6131714.941680007" end_time="06:00:00" >
			</activity>
			<leg mode="car">
			</leg>
			<activity type="home" x="532842.341730046" y="6131714.941680007" >
			</activity>
		</plan>

	</person>

<!-- ====================================================================== -->

	<person id="133">
		<plan selected="yes">
			<activity type="home" x="531398.6446610973" y="6131928.774285969" end_time="06:00:00" >
			</activity>
			<leg mode="car">
			</leg>
			<activity type="home" x="531398.6446610973" y="6131928.774285969" >
			</activity>
		</plan>

	</person>

<!-- ====================================================================== -->

	<person id="134">
		<plan selected="yes">
			<activity type="home" x="532077.3583337043" y="6130882.910870011" end_time="06:00:00" >
			</activity>
			<leg mode="car">
			</leg>
			<activity type="home" x="532077.3583337043" y="6130882.910870011" >
			</activity>
		</plan>

	</person>

<!-- ====================================================================== -->

	<person id="135">
		<plan selected="yes">
			<activity type="home" x="532522.3363363738" y="6130946.153220616" end_time="06:00:00" >
			</activity>
			<leg mode="car">
			</leg>
			<activity type="home" x="532522.3363363738" y="6130946.153220616" >
			</activity>
		</plan>

	</person>

<!-- ====================================================================== -->

	<person id="136">
		<plan selected="yes">
			<activity type="home" x="531608.0795124323" y="6131841.654355977" end_time="06:00:00" >
			</activity>
			<leg mode="car">
			</leg>
			<activity type="home" x="531608.0795124323" y="6131841.654355977" >
			</activity>
		</plan>

	</person>

<!-- ====================================================================== -->

	<person id="137">
		<plan selected="yes">
			<activity type="home" x="531595.4918917338" y="6130657.987150848" end_time="06:00:00" >
			</activity>
			<leg mode="car">
			</leg>
			<activity type="home" x="531595.4918917338" y="6130657.987150848" >
			</activity>
		</plan>

	</person>

<!-- ====================================================================== -->

	<person id="138">
		<plan selected="yes">
			<activity type="home" x="532704.0303801883" y="6131071.5752152335" end_time="06:00:00" >
			</activity>
			<leg mode="car">
			</leg>
			<activity type="home" x="532704.0303801883" y="6131071.5752152335" >
			</activity>
		</plan>

	</person>

<!-- ====================================================================== -->

	<person id="139">
		<plan selected="yes">
			<activity type="home" x="532819.6676257089" y="6131896.128825982" end_time="06:00:00" >
			</activity>
			<leg mode="car">
			</leg>
			<activity type="home" x="532819.6676257089" y="6131896.128825982" >
			</activity>
		</plan>

	</person>

<!-- ====================================================================== -->

	<person id="14">
		<plan selected="yes">
			<activity type="home" x="531651.4840283213" y="6131120.356478933" end_time="06:00:00" >
			</activity>
			<leg mode="car">
			</leg>
			<activity type="home" x="531651.4840283213" y="6131120.356478933" >
			</activity>
		</plan>

	</person>

<!-- ====================================================================== -->

	<person id="140">
		<plan selected="yes">
			<activity type="home" x="531946.4665990152" y="6131648.66671322" end_time="06:00:00" >
			</activity>
			<leg mode="car">
			</leg>
			<activity type="home" x="531946.4665990152" y="6131648.66671322" >
			</activity>
		</plan>

	</person>

<!-- ====================================================================== -->

	<person id="141">
		<plan selected="yes">
			<activity type="home" x="532887.8176373101" y="6131579.785999883" end_time="06:00:00" >
			</activity>
			<leg mode="car">
			</leg>
			<activity type="home" x="532887.8176373101" y="6131579.785999883" >
			</activity>
		</plan>

	</person>

<!-- ====================================================================== -->

	<person id="142">
		<plan selected="yes">
			<activity type="home" x="532143.1075130012" y="6131107.79222316" end_time="06:00:00" >
			</activity>
			<leg mode="car">
			</leg>
			<activity type="home" x="532143.1075130012" y="6131107.79222316" >
			</activity>
		</plan>

	</person>

<!-- ====================================================================== -->

	<person id="143">
		<plan selected="yes">
			<activity type="home" x="532574.4148142494" y="6131417.148834169" end_time="06:00:00" >
			</activity>
			<leg mode="car">
			</leg>
			<activity type="home" x="532574.4148142494" y="6131417.148834169" >
			</activity>
		</plan>

	</person>

<!-- ====================================================================== -->

	<person id="144">
		<plan selected="yes">
			<activity type="home" x="531946.1174990006" y="6130185.801629218" end_time="06:00:00" >
			</activity>
			<leg mode="car">
			</leg>
			<activity type="home" x="531946.1174990006" y="6130185.801629218" >
			</activity>
		</plan>

	</person>

<!-- ====================================================================== -->

	<person id="145">
		<plan selected="yes">
			<activity type="home" x="533122.0415206633" y="6131582.751817115" end_time="06:00:00" >
			</activity>
			<leg mode="car">
			</leg>
			<activity type="home" x="533122.0415206633" y="6131582.751817115" >
			</activity>
		</plan>

	</person>

<!-- ====================================================================== -->

	<person id="146">
		<plan selected="yes">
			<activity type="home" x="531576.2284891903" y="6131908.880884846" end_time="06:00:00" >
			</activity>
			<leg mode="car">
			</leg>
			<activity type="home" x="531576.2284891903" y="6131908.880884846" >
			</activity>
		</plan>

	</person>

<!-- ====================================================================== -->

	<person id="147">
		<plan selected="yes">
			<activity type="home" x="531366.3844193631" y="6131948.791329959" end_time="06:00:00" >
			</activity>
			<leg mode="car">
			</leg>
			<activity type="home" x="531366.3844193631" y="6131948.791329959" >
			</activity>
		</plan>

	</person>

<!-- ====================================================================== -->

	<person id="148">
		<plan selected="yes">
			<activity type="home" x="532103.7853355668" y="6131694.459676874" end_time="06:00:00" >
			</activity>
			<leg mode="car">
			</leg>
			<activity type="home" x="532103.7853355668" y="6131694.459676874" >
			</activity>
		</plan>

	</person>

<!-- ====================================================================== -->

	<person id="149">
		<plan selected="yes">
			<activity type="home" x="532564.1216383746" y="6131479.868938262" end_time="06:00:00" >
			</activity>
			<leg mode="car">
			</leg>
			<activity type="home" x="532564.1216383746" y="6131479.868938262" >
			</activity>
		</plan>

	</person>

<!-- ====================================================================== -->

	<person id="15">
		<plan selected="yes">
			<activity type="home" x="531603.7411563533" y="6131233.341416701" end_time="06:00:00" >
			</activity>
			<leg mode="car">
			</leg>
			<activity type="home" x="531603.7411563533" y="6131233.341416701" >
			</activity>
		</plan>

	</person>

<!-- ====================================================================== -->

	<person id="150">
		<plan selected="yes">
			<activity type="home" x="532140.4646470621" y="6131891.062984371" end_time="06:00:00" >
			</activity>
			<leg mode="car">
			</leg>
			<activity type="home" x="532140.4646470621" y="6131891.062984371" >
			</activity>
		</plan>

	</person>

<!-- ====================================================================== -->

	<person id="151">
		<plan selected="yes">
			<activity type="home" x="532275.029676251" y="6130903.230996882" end_time="06:00:00" >
			</activity>
			<leg mode="car">
			</leg>
			<activity type="home" x="532275.029676251" y="6130903.230996882" >
			</activity>
		</plan>

	</person>

<!-- ====================================================================== -->

	<person id="152">
		<plan selected="yes">
			<activity type="home" x="531875.7751406278" y="6131126.638891762" end_time="06:00:00" >
			</activity>
			<leg mode="car">
			</leg>
			<activity type="home" x="531875.7751406278" y="6131126.638891762" >
			</activity>
		</plan>

	</person>

<!-- ====================================================================== -->

	<person id="153">
		<plan selected="yes">
			<activity type="home" x="532786.0387611925" y="6131394.866780462" end_time="06:00:00" >
			</activity>
			<leg mode="car">
			</leg>
			<activity type="home" x="532786.0387611925" y="6131394.866780462" >
			</activity>
		</plan>

	</person>

<!-- ====================================================================== -->

	<person id="154">
		<plan selected="yes">
			<activity type="home" x="531944.2122135761" y="6131526.10996072" end_time="06:00:00" >
			</activity>
			<leg mode="car">
			</leg>
			<activity type="home" x="531944.2122135761" y="6131526.10996072" >
			</activity>
		</plan>

	</person>

<!-- ====================================================================== -->

	<person id="155">
		<plan selected="yes">
			<activity type="home" x="532843.1276731441" y="6130450.48974191" end_time="06:00:00" >
			</activity>
			<leg mode="car">
			</leg>
			<activity type="home" x="532843.1276731441" y="6130450.48974191" >
			</activity>
		</plan>

	</person>

<!-- ====================================================================== -->

	<person id="156">
		<plan selected="yes">
			<activity type="home" x="531331.42230619" y="6130567.594287019" end_time="06:00:00" >
			</activity>
			<leg mode="car">
			</leg>
			<activity type="home" x="531331.42230619" y="6130567.594287019" >
			</activity>
		</plan>

	</person>

<!-- ====================================================================== -->

	<person id="157">
		<plan selected="yes">
			<activity type="home" x="531669.0413565595" y="6130670.327770856" end_time="06:00:00" >
			</activity>
			<leg mode="car">
			</leg>
			<activity type="home" x="531669.0413565595" y="6130670.327770856" >
			</activity>
		</plan>

	</person>

<!-- ====================================================================== -->

	<person id="158">
		<plan selected="yes">
			<activity type="home" x="533133.5773350552" y="6130792.96551427" end_time="06:00:00" >
			</activity>
			<leg mode="car">
			</leg>
			<activity type="home" x="533133.5773350552" y="6130792.96551427" >
			</activity>
		</plan>

	</person>

<!-- ====================================================================== -->

	<person id="159">
		<plan selected="yes">
			<activity type="home" x="531658.4329677703" y="6131866.695917814" end_time="06:00:00" >
			</activity>
			<leg mode="car">
			</leg>
			<activity type="home" x="531658.4329677703" y="6131866.695917814" >
			</activity>
		</plan>

	</person>

<!-- ====================================================================== -->

	<person id="16">
		<plan selected="yes">
			<activity type="home" x="532337.9737562669" y="6131132.207520356" end_time="06:00:00" >
			</activity>
			<leg mode="car">
			</leg>
			<activity type="home" x="532337.9737562669" y="6131132.207520356" >
			</activity>
		</plan>

	</person>

<!-- ====================================================================== -->

	<person id="160">
		<plan selected="yes">
			<activity type="home" x="532803.9414773035" y="6131058.671575575" end_time="06:00:00" >
			</activity>
			<leg mode="car">
			</leg>
			<activity type="home" x="532803.9414773035" y="6131058.671575575" >
			</activity>
		</plan>

	</person>

<!-- ====================================================================== -->

	<person id="161">
		<plan selected="yes">
			<activity type="home" x="532370.0487036024" y="6131230.324233062" end_time="06:00:00" >
			</activity>
			<leg mode="car">
			</leg>
			<activity type="home" x="532370.0487036024" y="6131230.324233062" >
			</activity>
		</plan>

	</person>

<!-- ====================================================================== -->

	<person id="162">
		<plan selected="yes">
			<activity type="home" x="532107.4347142342" y="6130719.583955616" end_time="06:00:00" >
			</activity>
			<leg mode="car">
			</leg>
			<activity type="home" x="532107.4347142342" y="6130719.583955616" >
			</activity>
		</plan>

	</person>

<!-- ====================================================================== -->

	<person id="163">
		<plan selected="yes">
			<activity type="home" x="532242.1189497223" y="6130568.504487422" end_time="06:00:00" >
			</activity>
			<leg mode="car">
			</leg>
			<activity type="home" x="532242.1189497223" y="6130568.504487422" >
			</activity>
		</plan>

	</person>

<!-- ====================================================================== -->

	<person id="164">
		<plan selected="yes">
			<activity type="home" x="532818.0893364538" y="6131873.225994935" end_time="06:00:00" >
			</activity>
			<leg mode="car">
			</leg>
			<activity type="home" x="532818.0893364538" y="6131873.225994935" >
			</activity>
		</plan>

	</person>

<!-- ====================================================================== -->

	<person id="165">
		<plan selected="yes">
			<activity type="home" x="532297.3794638348" y="6131870.089689765" end_time="06:00:00" >
			</activity>
			<leg mode="car">
			</leg>
			<activity type="home" x="532297.3794638348" y="6131870.089689765" >
			</activity>
		</plan>

	</person>

<!-- ====================================================================== -->

	<person id="166">
		<plan selected="yes">
			<activity type="home" x="533165.7736530255" y="6131415.399587779" end_time="06:00:00" >
			</activity>
			<leg mode="car">
			</leg>
			<activity type="home" x="533165.7736530255" y="6131415.399587779" >
			</activity>
		</plan>

	</person>

<!-- ====================================================================== -->

	<person id="167">
		<plan selected="yes">
			<activity type="home" x="531574.4274456656" y="6131165.701728148" end_time="06:00:00" >
			</activity>
			<leg mode="car">
			</leg>
			<activity type="home" x="531574.4274456656" y="6131165.701728148" >
			</activity>
		</plan>

	</person>

<!-- ====================================================================== -->

	<person id="168">
		<plan selected="yes">
			<activity type="home" x="533039.6014997008" y="6130333.65803354" end_time="06:00:00" >
			</activity>
			<leg mode="car">
			</leg>
			<activity type="home" x="533039.6014997008" y="6130333.65803354" >
			</activity>
		</plan>

	</person>

<!-- ====================================================================== -->

	<person id="169">
		<plan selected="yes">
			<activity type="home" x="531482.8926017134" y="6131658.721859497" end_time="06:00:00" >
			</activity>
			<leg mode="car">
			</leg>
			<activity type="home" x="531482.8926017134" y="6131658.721859497" >
			</activity>
		</plan>

	</person>

<!-- ====================================================================== -->

	<person id="17">
		<plan selected="yes">
			<activity type="home" x="532665.493456593" y="6130269.690061368" end_time="06:00:00" >
			</activity>
			<leg mode="car">
			</leg>
			<activity type="home" x="532665.493456593" y="6130269.690061368" >
			</activity>
		</plan>

	</person>

<!-- ====================================================================== -->

	<person id="170">
		<plan selected="yes">
			<activity type="home" x="533045.8339052837" y="6131371.923272618" end_time="06:00:00" >
			</activity>
			<leg mode="car">
			</leg>
			<activity type="home" x="533045.8339052837" y="6131371.923272618" >
			</activity>
		</plan>

	</person>
