<?xml version="1.0" encoding="utf-8"?>
<!--
  #%L
  BDI-ABM Integration Package
  %%
  Copyright (C) 2014 - 2015 by its authors. See AUTHORS file.
  %%
  This program is free software: you can redistribute it and/or modify
  it under the terms of the GNU Lesser General Public License as
  published by the Free Software Foundation, either version 3 of the
  License, or (at your option) any later version.
  
  This program is distributed in the hope that it will be useful,
  but WITHOUT ANY WARRANTY; without even the implied warranty of
  MERCHANTABILITY or FITNESS FOR A PARTICULAR PURPOSE.  See the
  GNU General Lesser Public License for more details.
  
  You should have received a copy of the GNU General Lesser Public
  License along with this program.  If not, see
  <http://www.gnu.org/licenses/lgpl-3.0.html>.
  #L%
  -->

<!DOCTYPE population SYSTEM "http://www.matsim.org/files/dtd/population_v5.dtd">

<population>

<!-- ====================================================================== -->

	<person id="1" employed="no">
		<plan selected="yes">
			<act type="home" x="635333.6255847125" y="5886838.98413818" end_time="06:00:00" />
			<leg mode="car">
			</leg>
			<act type="home" x="635333.6255847125" y="5886838.98413818" />
		</plan>

	</person>

<!-- ====================================================================== -->

	<person id="10" employed="no">
		<plan selected="yes">
			<act type="home" x="638927.1865652775" y="5887078.289993125" end_time="06:00:00" />
			<leg mode="car">
			</leg>
			<act type="home" x="638927.1865652775" y="5887078.289993125" />
		</plan>

	</person>

<!-- ====================================================================== -->

	<person id="100" employed="no">
		<plan selected="yes">
			<act type="home" x="635147.223681795" y="5889303.452793753" end_time="06:00:00" />
			<leg mode="car">
			</leg>
			<act type="home" x="635147.223681795" y="5889303.452793753" />
		</plan>

	</person>

<!-- ====================================================================== -->

	<person id="101" employed="no">
		<plan selected="yes">
			<act type="home" x="635121.9363215492" y="5887741.2688806765" end_time="06:00:00" />
			<leg mode="car">
			</leg>
			<act type="home" x="635121.9363215492" y="5887741.2688806765" />
		</plan>

	</person>

<!-- ====================================================================== -->

	<person id="102" employed="no">
		<plan selected="yes">
			<act type="home" x="635561.1768126736" y="5886450.882445771" end_time="06:00:00" />
			<leg mode="car">
			</leg>
			<act type="home" x="635561.1768126736" y="5886450.882445771" />
		</plan>

	</person>

<!-- ====================================================================== -->

	<person id="103" employed="no">
		<plan selected="yes">
			<act type="home" x="636688.9478078183" y="5884717.628896533" end_time="06:00:00" />
			<leg mode="car">
			</leg>
			<act type="home" x="636688.9478078183" y="5884717.628896533" />
		</plan>

	</person>

<!-- ====================================================================== -->

	<person id="104" employed="no">
		<plan selected="yes">
			<act type="home" x="634992.9773524996" y="5888652.281103276" end_time="06:00:00" />
			<leg mode="car">
			</leg>
			<act type="home" x="634992.9773524996" y="5888652.281103276" />
		</plan>

	</person>

<!-- ====================================================================== -->

	<person id="105" employed="no">
		<plan selected="yes">
			<act type="home" x="636430.4391618852" y="5889507.525186809" end_time="06:00:00" />
			<leg mode="car">
			</leg>
			<act type="home" x="636430.4391618852" y="5889507.525186809" />
		</plan>

	</person>

<!-- ====================================================================== -->

	<person id="106" employed="no">
		<plan selected="yes">
			<act type="home" x="635230.5369032113" y="5887086.483984569" end_time="06:00:00" />
			<leg mode="car">
			</leg>
			<act type="home" x="635230.5369032113" y="5887086.483984569" />
		</plan>

	</person>

<!-- ====================================================================== -->

	<person id="107" employed="no">
		<plan selected="yes">
			<act type="home" x="635077.2096418665" y="5889460.794536752" end_time="06:00:00" />
			<leg mode="car">
			</leg>
			<act type="home" x="635077.2096418665" y="5889460.794536752" />
		</plan>

	</person>

<!-- ====================================================================== -->

	<person id="108" employed="no">
		<plan selected="yes">
			<act type="home" x="635774.512596024" y="5886484.299317801" end_time="06:00:00" />
			<leg mode="car">
			</leg>
			<act type="home" x="635774.512596024" y="5886484.299317801" />
		</plan>

	</person>

<!-- ====================================================================== -->

	<person id="109" employed="no">
		<plan selected="yes">
			<act type="home" x="634727.3114944889" y="5888253.631786725" end_time="06:00:00" />
			<leg mode="car">
			</leg>
			<act type="home" x="634727.3114944889" y="5888253.631786725" />
		</plan>

	</person>

<!-- ====================================================================== -->

	<person id="11" employed="no">
		<plan selected="yes">
			<act type="home" x="635390.4506998442" y="5887014.978015486" end_time="06:00:00" />
			<leg mode="car">
			</leg>
			<act type="home" x="635390.4506998442" y="5887014.978015486" />
		</plan>

	</person>

<!-- ====================================================================== -->

	<person id="110" employed="no">
		<plan selected="yes">
			<act type="home" x="636417.3238163142" y="5889637.960740773" end_time="06:00:00" />
			<leg mode="car">
			</leg>
			<act type="home" x="636417.3238163142" y="5889637.960740773" />
		</plan>

	</person>

<!-- ====================================================================== -->

	<person id="111" employed="no">
		<plan selected="yes">
			<act type="home" x="635092.4453555916" y="5888018.931264316" end_time="06:00:00" />
			<leg mode="car">
			</leg>
			<act type="home" x="635092.4453555916" y="5888018.931264316" />
		</plan>

	</person>

<!-- ====================================================================== -->

	<person id="112" employed="no">
		<plan selected="yes">
			<act type="home" x="635461.9481637024" y="5886974.625138432" end_time="06:00:00" />
			<leg mode="car">
			</leg>
			<act type="home" x="635461.9481637024" y="5886974.625138432" />
		</plan>

	</person>

<!-- ====================================================================== -->

	<person id="113" employed="no">
		<plan selected="yes">
			<act type="home" x="635185.7692215669" y="5887163.160866462" end_time="06:00:00" />
			<leg mode="car">
			</leg>
			<act type="home" x="635185.7692215669" y="5887163.160866462" />
		</plan>

	</person>

<!-- ====================================================================== -->

	<person id="114" employed="no">
		<plan selected="yes">
			<act type="home" x="634901.932355911" y="5888475.597657803" end_time="06:00:00" />
			<leg mode="car">
			</leg>
			<act type="home" x="634901.932355911" y="5888475.597657803" />
		</plan>

	</person>

<!-- ====================================================================== -->

	<person id="115" employed="no">
		<plan selected="yes">
			<act type="home" x="636395.6949236745" y="5889625.423139274" end_time="06:00:00" />
			<leg mode="car">
			</leg>
			<act type="home" x="636395.6949236745" y="5889625.423139274" />
		</plan>

	</person>

<!-- ====================================================================== -->

	<person id="116" employed="no">
		<plan selected="yes">
			<act type="home" x="635445.0674141601" y="5886964.746806398" end_time="06:00:00" />
			<leg mode="car">
			</leg>
			<act type="home" x="635445.0674141601" y="5886964.746806398" />
		</plan>

	</person>

<!-- ====================================================================== -->

	<person id="117" employed="no">
		<plan selected="yes">
			<act type="home" x="635066.5805769248" y="5887876.9481671415" end_time="06:00:00" />
			<leg mode="car">
			</leg>
			<act type="home" x="635066.5805769248" y="5887876.9481671415" />
		</plan>

	</person>

<!-- ====================================================================== -->

	<person id="118" employed="no">
		<plan selected="yes">
			<act type="home" x="636428.727252544" y="5885362.904693705" end_time="06:00:00" />
			<leg mode="car">
			</leg>
			<act type="home" x="636428.727252544" y="5885362.904693705" />
		</plan>

	</person>

<!-- ====================================================================== -->

	<person id="119" employed="no">
		<plan selected="yes">
			<act type="home" x="639684.1179037315" y="5888517.632444455" end_time="06:00:00" />
			<leg mode="car">
			</leg>
			<act type="home" x="639684.1179037315" y="5888517.632444455" />
		</plan>

	</person>

<!-- ====================================================================== -->

	<person id="12" employed="no">
		<plan selected="yes">
			<act type="home" x="635154.594313387" y="5887826.882875535" end_time="06:00:00" />
			<leg mode="car">
			</leg>
			<act type="home" x="635154.594313387" y="5887826.882875535" />
		</plan>

	</person>

<!-- ====================================================================== -->

	<person id="120" employed="no">
		<plan selected="yes">
			<act type="home" x="635230.5369032113" y="5887086.483984569" end_time="06:00:00" />
			<leg mode="car">
			</leg>
			<act type="home" x="635230.5369032113" y="5887086.483984569" />
		</plan>

	</person>

<!-- ====================================================================== -->

	<person id="121" employed="no">
		<plan selected="yes">
			<act type="home" x="636245.9044642776" y="5889826.882389104" end_time="06:00:00" />
			<leg mode="car">
			</leg>
			<act type="home" x="636245.9044642776" y="5889826.882389104" />
		</plan>

	</person>

<!-- ====================================================================== -->

	<person id="122" employed="no">
		<plan selected="yes">
			<act type="home" x="635221.8562182594" y="5888682.034944467" end_time="06:00:00" />
			<leg mode="car">
			</leg>
			<act type="home" x="635221.8562182594" y="5888682.034944467" />
		</plan>

	</person>

<!-- ====================================================================== -->

	<person id="123" employed="no">
		<plan selected="yes">
			<act type="home" x="635588.7875996416" y="5886403.790362721" end_time="06:00:00" />
			<leg mode="car">
			</leg>
			<act type="home" x="635588.7875996416" y="5886403.790362721" />
		</plan>

	</person>

<!-- ====================================================================== -->

	<person id="124" employed="no">
		<plan selected="yes">
			<act type="home" x="636432.8476843326" y="5889721.227557238" end_time="06:00:00" />
			<leg mode="car">
			</leg>
			<act type="home" x="636432.8476843326" y="5889721.227557238" />
		</plan>

	</person>

<!-- ====================================================================== -->

	<person id="125" employed="no">
		<plan selected="yes">
			<act type="home" x="635086.7179508457" y="5887654.0556210745" end_time="06:00:00" />
			<leg mode="car">
			</leg>
			<act type="home" x="635086.7179508457" y="5887654.0556210745" />
		</plan>

	</person>

<!-- ====================================================================== -->

	<person id="126" employed="no">
		<plan selected="yes">
			<act type="home" x="635534.9523803701" y="5886495.61052042" end_time="06:00:00" />
			<leg mode="car">
			</leg>
			<act type="home" x="635534.9523803701" y="5886495.61052042" />
		</plan>

	</person>

<!-- ====================================================================== -->

	<person id="127" employed="no">
		<plan selected="yes">
			<act type="home" x="636604.201495057" y="5884654.405379273" end_time="06:00:00" />
			<leg mode="car">
			</leg>
			<act type="home" x="636604.201495057" y="5884654.405379273" />
		</plan>

	</person>

<!-- ====================================================================== -->

	<person id="128" employed="no">
		<plan selected="yes">
			<act type="home" x="636676.6731872747" y="5884766.188554751" end_time="06:00:00" />
			<leg mode="car">
			</leg>
			<act type="home" x="636676.6731872747" y="5884766.188554751" />
		</plan>

	</person>

<!-- ====================================================================== -->

	<person id="129" employed="no">
		<plan selected="yes">
			<act type="home" x="636736.4309151412" y="5889006.562373505" end_time="06:00:00" />
			<leg mode="car">
			</leg>
			<act type="home" x="636736.4309151412" y="5889006.562373505" />
		</plan>

	</person>

<!-- ====================================================================== -->

	<person id="13" employed="no">
		<plan selected="yes">
			<act type="home" x="635308.3724981801" y="5889548.752282716" end_time="06:00:00" />
			<leg mode="car">
			</leg>
			<act type="home" x="635308.3724981801" y="5889548.752282716" />
		</plan>

	</person>

<!-- ====================================================================== -->

	<person id="130" employed="no">
		<plan selected="yes">
			<act type="home" x="636246.0736155573" y="5889822.6137562655" end_time="06:00:00" />
			<leg mode="car">
			</leg>
			<act type="home" x="636246.0736155573" y="5889822.6137562655" />
		</plan>

	</person>

<!-- ====================================================================== -->

	<person id="131" employed="no">
		<plan selected="yes">
			<act type="home" x="636575.6320758162" y="5884596.555279928" end_time="06:00:00" />
			<leg mode="car">
			</leg>
			<act type="home" x="636575.6320758162" y="5884596.555279928" />
		</plan>

	</person>

<!-- ====================================================================== -->

	<person id="132" employed="no">
		<plan selected="yes">
			<act type="home" x="635703.6806219795" y="5886606.001861558" end_time="06:00:00" />
			<leg mode="car">
			</leg>
			<act type="home" x="635703.6806219795" y="5886606.001861558" />
		</plan>

	</person>

<!-- ====================================================================== -->

	<person id="133" employed="no">
		<plan selected="yes">
			<act type="home" x="635132.348233941" y="5887182.897242423" end_time="06:00:00" />
			<leg mode="car">
			</leg>
			<act type="home" x="635132.348233941" y="5887182.897242423" />
		</plan>

	</person>

<!-- ====================================================================== -->

	<person id="134" employed="no">
		<plan selected="yes">
			<act type="home" x="635566.0518707617" y="5886594.199013281" end_time="06:00:00" />
			<leg mode="car">
			</leg>
			<act type="home" x="635566.0518707617" y="5886594.199013281" />
		</plan>

	</person>

<!-- ====================================================================== -->

	<person id="135" employed="no">
		<plan selected="yes">
			<act type="home" x="635360.3120975519" y="5886793.467004031" end_time="06:00:00" />
			<leg mode="car">
			</leg>
			<act type="home" x="635360.3120975519" y="5886793.467004031" />
		</plan>

	</person>

<!-- ====================================================================== -->

	<person id="136" employed="no">
		<plan selected="yes">
			<act type="home" x="635754.3340049222" y="5886518.970555738" end_time="06:00:00" />
			<leg mode="car">
			</leg>
			<act type="home" x="635754.3340049222" y="5886518.970555738" />
		</plan>

	</person>

<!-- ====================================================================== -->

	<person id="137" employed="no">
		<plan selected="yes">
			<act type="home" x="635317.626121717" y="5887265.808761221" end_time="06:00:00" />
			<leg mode="car">
			</leg>
			<act type="home" x="635317.626121717" y="5887265.808761221" />
		</plan>

	</person>

<!-- ====================================================================== -->

	<person id="138" employed="no">
		<plan selected="yes">
			<act type="home" x="635096.389664192" y="5888252.013501251" end_time="06:00:00" />
			<leg mode="car">
			</leg>
			<act type="home" x="635096.389664192" y="5888252.013501251" />
		</plan>

	</person>

<!-- ====================================================================== -->

	<person id="139" employed="no">
		<plan selected="yes">
			<act type="home" x="635048.3303521106" y="5888478.74253601" end_time="06:00:00" />
			<leg mode="car">
			</leg>
			<act type="home" x="635048.3303521106" y="5888478.74253601" />
		</plan>

	</person>

<!-- ====================================================================== -->

	<person id="14" employed="no">
		<plan selected="yes">
			<act type="home" x="636379.7878246539" y="5889767.4540901845" end_time="06:00:00" />
			<leg mode="car">
			</leg>
			<act type="home" x="636379.7878246539" y="5889767.4540901845" />
		</plan>

	</person>

<!-- ====================================================================== -->

	<person id="140" employed="no">
		<plan selected="yes">
			<act type="home" x="635064.5031513682" y="5888248.436383641" end_time="06:00:00" />
			<leg mode="car">
			</leg>
			<act type="home" x="635064.5031513682" y="5888248.436383641" />
		</plan>

	</person>

<!-- ====================================================================== -->

	<person id="141" employed="no">
		<plan selected="yes">
			<act type="home" x="636688.9478078183" y="5884717.628896533" end_time="06:00:00" />
			<leg mode="car">
			</leg>
			<act type="home" x="636688.9478078183" y="5884717.628896533" />
		</plan>

	</person>

<!-- ====================================================================== -->

	<person id="142" employed="no">
		<plan selected="yes">
			<act type="home" x="634842.8170777749" y="5888327.278105805" end_time="06:00:00" />
			<leg mode="car">
			</leg>
			<act type="home" x="634842.8170777749" y="5888327.278105805" />
		</plan>

	</person>

<!-- ====================================================================== -->

	<person id="143" employed="no">
		<plan selected="yes">
			<act type="home" x="635703.6806219795" y="5886606.001861558" end_time="06:00:00" />
			<leg mode="car">
			</leg>
			<act type="home" x="635703.6806219795" y="5886606.001861558" />
		</plan>

	</person>

<!-- ====================================================================== -->

	<person id="144" employed="no">
		<plan selected="yes">
			<act type="home" x="635392.2081865752" y="5886739.070093061" end_time="06:00:00" />
			<leg mode="car">
			</leg>
			<act type="home" x="635392.2081865752" y="5886739.070093061" />
		</plan>

	</person>

<!-- ====================================================================== -->

	<person id="145" employed="no">
		<plan selected="yes">
			<act type="home" x="635144.6900245871" y="5889198.913923641" end_time="06:00:00" />
			<leg mode="car">
			</leg>
			<act type="home" x="635144.6900245871" y="5889198.913923641" />
		</plan>

	</person>

<!-- ====================================================================== -->

	<person id="146" employed="no">
		<plan selected="yes">
			<act type="home" x="635520.3887862746" y="5886591.802256571" end_time="06:00:00" />
			<leg mode="car">
			</leg>
			<act type="home" x="635520.3887862746" y="5886591.802256571" />
		</plan>

	</person>

<!-- ====================================================================== -->

	<person id="147" employed="no">
		<plan selected="yes">
			<act type="home" x="639655.8332557876" y="5888526.830888286" end_time="06:00:00" />
			<leg mode="car">
			</leg>
			<act type="home" x="639655.8332557876" y="5888526.830888286" />
		</plan>

	</person>

<!-- ====================================================================== -->

	<person id="148" employed="no">
		<plan selected="yes">
			<act type="home" x="635250.9307405727" y="5887051.552157432" end_time="06:00:00" />
			<leg mode="car">
			</leg>
			<act type="home" x="635250.9307405727" y="5887051.552157432" />
		</plan>

	</person>

<!-- ====================================================================== -->

	<person id="149" employed="no">
		<plan selected="yes">
			<act type="home" x="635754.3340049222" y="5886518.970555738" end_time="06:00:00" />
			<leg mode="car">
			</leg>
			<act type="home" x="635754.3340049222" y="5886518.970555738" />
		</plan>

	</person>

<!-- ====================================================================== -->

	<person id="15" employed="no">
		<plan selected="yes">
			<act type="home" x="636430.4391618852" y="5889507.525186809" end_time="06:00:00" />
			<leg mode="car">
			</leg>
			<act type="home" x="636430.4391618852" y="5889507.525186809" />
		</plan>

	</person>

<!-- ====================================================================== -->

	<person id="150" employed="no">
		<plan selected="yes">
			<act type="home" x="635096.389664192" y="5888252.013501251" end_time="06:00:00" />
			<leg mode="car">
			</leg>
			<act type="home" x="635096.389664192" y="5888252.013501251" />
		</plan>

	</person>

<!-- ====================================================================== -->

	<person id="151" employed="no">
		<plan selected="yes">
			<act type="home" x="640450.7232767838" y="5889041.396014009" end_time="06:00:00" />
			<leg mode="car">
			</leg>
			<act type="home" x="640450.7232767838" y="5889041.396014009" />
		</plan>

	</person>

<!-- ====================================================================== -->

	<person id="152" employed="no">
		<plan selected="yes">
			<act type="home" x="634965.6000291181" y="5888370.74877153" end_time="06:00:00" />
			<leg mode="car">
			</leg>
			<act type="home" x="634965.6000291181" y="5888370.74877153" />
		</plan>

	</person>

<!-- ====================================================================== -->

	<person id="153" employed="no">
		<plan selected="yes">
			<act type="home" x="635121.9363215492" y="5887741.2688806765" end_time="06:00:00" />
			<leg mode="car">
			</leg>
			<act type="home" x="635121.9363215492" y="5887741.2688806765" />
		</plan>

	</person>

<!-- ====================================================================== -->

	<person id="154" employed="no">
		<plan selected="yes">
			<act type="home" x="636657.5557043899" y="5884694.470700575" end_time="06:00:00" />
			<leg mode="car">
			</leg>
			<act type="home" x="636657.5557043899" y="5884694.470700575" />
		</plan>

	</person>

<!-- ====================================================================== -->

	<person id="155" employed="no">
		<plan selected="yes">
			<act type="home" x="634949.0758928901" y="5888636.342463283" end_time="06:00:00" />
			<leg mode="car">
			</leg>
			<act type="home" x="634949.0758928901" y="5888636.342463283" />
		</plan>

	</person>

<!-- ====================================================================== -->

	<person id="156" employed="no">
		<plan selected="yes">
			<act type="home" x="635638.3314452964" y="5886730.12677119" end_time="06:00:00" />
			<leg mode="car">
			</leg>
			<act type="home" x="635638.3314452964" y="5886730.12677119" />
		</plan>

	</person>

<!-- ====================================================================== -->

	<person id="157" employed="no">
		<plan selected="yes">
			<act type="home" x="635204.7195929305" y="5888946.850126357" end_time="06:00:00" />
			<leg mode="car">
			</leg>
			<act type="home" x="635204.7195929305" y="5888946.850126357" />
		</plan>

	</person>

<!-- ====================================================================== -->

	<person id="158" employed="no">
		<plan selected="yes">
			<act type="home" x="635974.0402197416" y="5886365.0799810365" end_time="06:00:00" />
			<leg mode="car">
			</leg>
			<act type="home" x="635974.0402197416" y="5886365.0799810365" />
		</plan>

	</person>

<!-- ====================================================================== -->

	<person id="159" employed="no">
		<plan selected="yes">
			<act type="home" x="638443.9998398442" y="5890184.999905043" end_time="06:00:00" />
			<leg mode="car">
			</leg>
			<act type="home" x="638443.9998398442" y="5890184.999905043" />
		</plan>

	</person>

<!-- ====================================================================== -->

	<person id="16" employed="no">
		<plan selected="yes">
			<act type="home" x="635102.7953499317" y="5889478.878449067" end_time="06:00:00" />
			<leg mode="car">
			</leg>
			<act type="home" x="635102.7953499317" y="5889478.878449067" />
		</plan>

	</person>

<!-- ====================================================================== -->

	<person id="160" employed="no">
		<plan selected="yes">
			<act type="home" x="634616.5979061482" y="5888329.821117995" end_time="06:00:00" />
			<leg mode="car">
			</leg>
			<act type="home" x="634616.5979061482" y="5888329.821117995" />
		</plan>

	</person>

<!-- ====================================================================== -->

	<person id="161" employed="no">
		<plan selected="yes">
			<act type="home" x="636337.9112284079" y="5889822.3130811" end_time="06:00:00" />
			<leg mode="car">
			</leg>
			<act type="home" x="636337.9112284079" y="5889822.3130811" />
		</plan>

	</person>

<!-- ====================================================================== -->

	<person id="162" employed="no">
		<plan selected="yes">
			<act type="home" x="635658.703659816" y="5886695.336222475" end_time="06:00:00" />
			<leg mode="car">
			</leg>
			<act type="home" x="635658.703659816" y="5886695.336222475" />
		</plan>

	</person>

<!-- ====================================================================== -->

	<person id="163" employed="no">
		<plan selected="yes">
			<act type="home" x="634746.1358229122" y="5888253.285262546" end_time="06:00:00" />
			<leg mode="car">
			</leg>
			<act type="home" x="634746.1358229122" y="5888253.285262546" />
		</plan>

	</person>

<!-- ====================================================================== -->

	<person id="164" employed="no">
		<plan selected="yes">
			<act type="home" x="638927.1865652775" y="5887078.289993125" end_time="06:00:00" />
			<leg mode="car">
			</leg>
			<act type="home" x="638927.1865652775" y="5887078.289993125" />
		</plan>

	</person>

<!-- ====================================================================== -->

	<person id="165" employed="no">
		<plan selected="yes">
			<act type="home" x="634937.6727432753" y="5888277.072587181" end_time="06:00:00" />
			<leg mode="car">
			</leg>
			<act type="home" x="634937.6727432753" y="5888277.072587181" />
		</plan>

	</person>

<!-- ====================================================================== -->

	<person id="166" employed="no">
		<plan selected="yes">
			<act type="home" x="635536.2359338537" y="5886765.65361294" end_time="06:00:00" />
			<leg mode="car">
			</leg>
			<act type="home" x="635536.2359338537" y="5886765.65361294" />
		</plan>

	</person>

<!-- ====================================================================== -->

	<person id="167" employed="no">
		<plan selected="yes">
			<act type="home" x="635614.2641197848" y="5886988.783637329" end_time="06:00:00" />
			<leg mode="car">
			</leg>
			<act type="home" x="635614.2641197848" y="5886988.783637329" />
		</plan>

	</person>

<!-- ====================================================================== -->

	<person id="168" employed="no">
		<plan selected="yes">
			<act type="home" x="634992.6177021619" y="5888646.745882794" end_time="06:00:00" />
			<leg mode="car">
			</leg>
			<act type="home" x="634992.6177021619" y="5888646.745882794" />
		</plan>

	</person>

<!-- ====================================================================== -->

	<person id="169" employed="no">
		<plan selected="yes">
			<act type="home" x="635398.0086224776" y="5887530.090161389" end_time="06:00:00" />
			<leg mode="car">
			</leg>
			<act type="home" x="635398.0086224776" y="5887530.090161389" />
		</plan>

	</person>

<!-- ====================================================================== -->

	<person id="17" employed="no">
		<plan selected="yes">
			<act type="home" x="635310.6080263273" y="5887579.389296809" end_time="06:00:00" />
			<leg mode="car">
			</leg>
			<act type="home" x="635310.6080263273" y="5887579.389296809" />
		</plan>

	</person>

<!-- ====================================================================== -->

	<person id="170" employed="no">
		<plan selected="yes">
			<act type="home" x="635216.9540190202" y="5887835.945442518" end_time="06:00:00" />
			<leg mode="car">
			</leg>
			<act type="home" x="635216.9540190202" y="5887835.945442518" />
		</plan>

	</person>

<!-- ====================================================================== -->

	<person id="171" employed="no">
		<plan selected="yes">
			<act type="home" x="635196.2848845151" y="5889001.551879878" end_time="06:00:00" />
			<leg mode="car">
			</leg>
			<act type="home" x="635196.2848845151" y="5889001.551879878" />
		</plan>

	</person>

<!-- ====================================================================== -->

	<person id="172" employed="no">
		<plan selected="yes">
			<act type="home" x="635110.6043796964" y="5889026.126353258" end_time="06:00:00" />
			<leg mode="car">
			</leg>
			<act type="home" x="635110.6043796964" y="5889026.126353258" />
		</plan>

	</person>

<!-- ====================================================================== -->

	<person id="173" employed="no">
		<plan selected="yes">
			<act type="home" x="635547.9883608817" y="5886871.938941041" end_time="06:00:00" />
			<leg mode="car">
			</leg>
			<act type="home" x="635547.9883608817" y="5886871.938941041" />
		</plan>

	</person>

<!-- ====================================================================== -->

	<person id="174" employed="no">
		<plan selected="yes">
			<act type="home" x="635258.2557305957" y="5888703.968746311" end_time="06:00:00" />
			<leg mode="car">
			</leg>
			<act type="home" x="635258.2557305957" y="5888703.968746311" />
		</plan>

	</person>

<!-- ====================================================================== -->

	<person id="175" employed="no">