<?xml version='1.0' encoding='utf-8'?>
<!DOCTYPE population SYSTEM "http://www.matsim.org/files/dtd/population_v6.dtd">
<population>
  <!--============================================================================-->
  <person id="0">
    <plan selected="yes">
      <activity end_time="06:00:00" type="camp" x="751832" y="5732910"/>
      <leg mode="car"/>
      <activity type="camp" x="751832" y="5732910"/>
    </plan>
  </person>
  <!--============================================================================-->
  <person id="1">
    <plan selected="yes">
      <activity end_time="06:00:00" type="camp" x="751832" y="5732910"/>
      <leg mode="car"/>
      <activity type="camp" x="751832" y="5732910"/>
    </plan>
  </person>
  <!--============================================================================-->
  <person id="2">
    <plan selected="yes">
      <activity end_time="06:00:00" type="camp" x="751832" y="5732910"/>
      <leg mode="car"/>
      <activity type="camp" x="751832" y="5732910"/>
    </plan>
  </person>
  <!--============================================================================-->
  <person id="3">
    <plan selected="yes">
      <activity end_time="06:00:00" type="camp" x="751832" y="5732910"/>
      <leg mode="car"/>
      <activity type="camp" x="751832" y="5732910"/>
    </plan>
  </person>
  <!--============================================================================-->
  <person id="4">
    <plan selected="yes">
      <activity end_time="06:00:00" type="camp" x="751832" y="5732910"/>
      <leg mode="car"/>
      <activity type="camp" x="751832" y="5732910"/>
    </plan>
  </person>
  <!--============================================================================-->
  <person id="5">
    <plan selected="yes">
      <activity end_time="06:00:00" type="camp" x="751832" y="5732910"/>
      <leg mode="car"/>
      <activity type="camp" x="751832" y="5732910"/>
    </plan>
  </person>
  <!--============================================================================-->
  <person id="6">
    <plan selected="yes">
      <activity end_time="06:00:00" type="camp" x="751832" y="5732910"/>
      <leg mode="car"/>
      <activity type="camp" x="751832" y="5732910"/>
    </plan>
  </person>
  <!--============================================================================-->
  <person id="7">
    <plan selected="yes">
      <activity end_time="06:00:00" type="camp" x="751832" y="5732910"/>
      <leg mode="car"/>
      <activity type="camp" x="751832" y="5732910"/>
    </plan>
  </person>
  <!--============================================================================-->
  <person id="8">
    <plan selected="yes">
      <activity end_time="06:00:00" type="camp" x="751832" y="5732910"/>
      <leg mode="car"/>
      <activity type="camp" x="751832" y="5732910"/>
    </plan>
  </person>
  <!--============================================================================-->
  <person id="9">
    <plan selected="yes">
      <activity end_time="06:00:00" type="camp" x="751832" y="5732910"/>
      <leg mode="car"/>
      <activity type="camp" x="751832" y="5732910"/>
    </plan>
  </person>
  <!--============================================================================-->
  <person id="10">
    <plan selected="yes">
      <activity end_time="06:00:00" type="camp" x="751832" y="5732910"/>
      <leg mode="car"/>
      <activity type="camp" x="751832" y="5732910"/>
    </plan>
  </person>
  <!--============================================================================-->
  <person id="11">
    <plan selected="yes">
      <activity end_time="06:00:00" type="camp" x="751832" y="5732910"/>
      <leg mode="car"/>
      <activity type="camp" x="751832" y="5732910"/>
    </plan>
  </person>
  <!--============================================================================-->
  <person id="12">
    <plan selected="yes">
      <activity end_time="06:00:00" type="camp" x="751832" y="5732910"/>
      <leg mode="car"/>
      <activity type="camp" x="751832" y="5732910"/>
    </plan>
  </person>
  <!--============================================================================-->
  <person id="13">
    <plan selected="yes">
      <activity end_time="06:00:00" type="camp" x="751832" y="5732910"/>
      <leg mode="car"/>
      <activity type="camp" x="751832" y="5732910"/>
    </plan>
  </person>
  <!--============================================================================-->
  <person id="14">
    <plan selected="yes">
      <activity end_time="06:00:00" type="camp" x="751832" y="5732910"/>
      <leg mode="car"/>
      <activity type="camp" x="751832" y="5732910"/>
    </plan>
  </person>
  <!--============================================================================-->
  <person id="15">
    <plan selected="yes">
      <activity end_time="06:00:00" type="camp" x="751832" y="5732910"/>
      <leg mode="car"/>
      <activity type="camp" x="751832" y="5732910"/>
    </plan>
  </person>
  <!--============================================================================-->
  <person id="16">
    <plan selected="yes">
      <activity end_time="06:00:00" type="camp" x="751832" y="5732910"/>
      <leg mode="car"/>
      <activity type="camp" x="751832" y="5732910"/>
    </plan>
  </person>
  <!--============================================================================-->
  <person id="17">
    <plan selected="yes">
      <activity end_time="06:00:00" type="camp" x="751832" y="5732910"/>
      <leg mode="car"/>
      <activity type="camp" x="751832" y="5732910"/>
    </plan>
  </person>
  <!--============================================================================-->
  <person id="18">
    <plan selected="yes">
      <activity end_time="06:00:00" type="camp" x="751832" y="5732910"/>
      <leg mode="car"/>
      <activity type="camp" x="751832" y="5732910"/>
    </plan>
  </person>
  <!--============================================================================-->
  <person id="19">
    <plan selected="yes">
      <activity end_time="06:00:00" type="camp" x="751832" y="5732910"/>
      <leg mode="car"/>
      <activity type="camp" x="751832" y="5732910"/>
    </plan>
  </person>
  <!--============================================================================-->
  <person id="20">
    <plan selected="yes">
      <activity end_time="06:00:00" type="camp" x="751832" y="5732910"/>
      <leg mode="car"/>
      <activity type="camp" x="751832" y="5732910"/>
    </plan>
  </person>
  <!--============================================================================-->
  <person id="21">
    <plan selected="yes">
      <activity end_time="06:00:00" type="camp" x="751832" y="5732910"/>
      <leg mode="car"/>
      <activity type="camp" x="751832" y="5732910"/>
    </plan>
  </person>
  <!--============================================================================-->
  <person id="22">
    <plan selected="yes">
      <activity end_time="06:00:00" type="camp" x="751832" y="5732910"/>
      <leg mode="car"/>
      <activity type="camp" x="751832" y="5732910"/>
    </plan>
  </person>
  <!--============================================================================-->
  <person id="23">
    <plan selected="yes">
      <activity end_time="06:00:00" type="camp" x="751832" y="5732910"/>
      <leg mode="car"/>
      <activity type="camp" x="751832" y="5732910"/>
    </plan>
  </person>
  <!--============================================================================-->
  <person id="24">
    <plan selected="yes">
      <activity end_time="06:00:00" type="camp" x="751832" y="5732910"/>
      <leg mode="car"/>
      <activity type="camp" x="751832" y="5732910"/>
    </plan>
  </person>
  <!--============================================================================-->
  <person id="25">
    <plan selected="yes">
      <activity end_time="06:00:00" type="camp" x="751832" y="5732910"/>
      <leg mode="car"/>
      <activity type="camp" x="751832" y="5732910"/>
    </plan>
  </person>
  <!--============================================================================-->
  <person id="26">
    <plan selected="yes">
      <activity end_time="06:00:00" type="camp" x="751832" y="5732910"/>
      <leg mode="car"/>
      <activity type="camp" x="751832" y="5732910"/>
    </plan>
  </person>
  <!--============================================================================-->
  <person id="27">
    <plan selected="yes">
      <activity end_time="06:00:00" type="camp" x="751832" y="5732910"/>
      <leg mode="car"/>
      <activity type="camp" x="751832" y="5732910"/>
    </plan>
  </person>
  <!--============================================================================-->
  <person id="28">
    <plan selected="yes">
      <activity end_time="06:00:00" type="camp" x="751832" y="5732910"/>
      <leg mode="car"/>
      <activity type="camp" x="751832" y="5732910"/>
    </plan>
  </person>
  <!--============================================================================-->
  <person id="29">
    <plan selected="yes">
      <activity end_time="06:00:00" type="camp" x="751832" y="5732910"/>
      <leg mode="car"/>
      <activity type="camp" x="751832" y="5732910"/>
    </plan>
  </person>
  <!--============================================================================-->
  <person id="30">
    <plan selected="yes">
      <activity end_time="06:00:00" type="camp" x="751832" y="5732910"/>
      <leg mode="car"/>
      <activity type="camp" x="751832" y="5732910"/>
    </plan>
  </person>
  <!--============================================================================-->
  <person id="31">
    <plan selected="yes">
      <activity end_time="06:00:00" type="camp" x="751832" y="5732910"/>
      <leg mode="car"/>
      <activity type="camp" x="751832" y="5732910"/>
    </plan>
  </person>
  <!--============================================================================-->
  <person id="32">
    <plan selected="yes">
      <activity end_time="06:00:00" type="camp" x="751832" y="5732910"/>
      <leg mode="car"/>
      <activity type="camp" x="751832" y="5732910"/>
    </plan>
  </person>
  <!--============================================================================-->
  <person id="33">
    <plan selected="yes">
      <activity end_time="06:00:00" type="camp" x="751832" y="5732910"/>
      <leg mode="car"/>
      <activity type="camp" x="751832" y="5732910"/>
    </plan>
  </person>
  <!--============================================================================-->
  <person id="34">
    <plan selected="yes">
      <activity end_time="06:00:00" type="camp" x="751832" y="5732910"/>
      <leg mode="car"/>
      <activity type="camp" x="751832" y="5732910"/>
    </plan>
  </person>
  <!--============================================================================-->
  <person id="35">
    <plan selected="yes">
      <activity end_time="06:00:00" type="camp" x="751832" y="5732910"/>
      <leg mode="car"/>
      <activity type="camp" x="751832" y="5732910"/>
    </plan>
  </person>
  <!--============================================================================-->
  <person id="36">
    <plan selected="yes">
      <activity end_time="06:00:00" type="camp" x="751832" y="5732910"/>
      <leg mode="car"/>
      <activity type="camp" x="751832" y="5732910"/>
    </plan>
  </person>
  <!--============================================================================-->
  <person id="37">
    <plan selected="yes">
      <activity end_time="06:00:00" type="camp" x="751832" y="5732910"/>
      <leg mode="car"/>
      <activity type="camp" x="751832" y="5732910"/>
    </plan>
  </person>
  <!--============================================================================-->
  <person id="38">
    <plan selected="yes">
      <activity end_time="06:00:00" type="camp" x="751832" y="5732910"/>
      <leg mode="car"/>
      <activity type="camp" x="751832" y="5732910"/>
    </plan>
  </person>
  <!--============================================================================-->
  <person id="39">
    <plan selected="yes">
      <activity end_time="06:00:00" type="camp" x="751832" y="5732910"/>
      <leg mode="car"/>
      <activity type="camp" x="751832" y="5732910"/>
    </plan>
  </person>
  <!--============================================================================-->
  <person id="40">
    <plan selected="yes">
      <activity end_time="06:00:00" type="camp" x="751832" y="5732910"/>
      <leg mode="car"/>
      <activity type="camp" x="751832" y="5732910"/>
    </plan>
  </person>
  <!--============================================================================-->
  <person id="41">
    <plan selected="yes">
      <activity end_time="06:00:00" type="camp" x="751832" y="5732910"/>
      <leg mode="car"/>
      <activity type="camp" x="751832" y="5732910"/>
    </plan>
  </person>
  <!--============================================================================-->
  <person id="42">
    <plan selected="yes">
      <activity end_time="06:00:00" type="camp" x="751832" y="5732910"/>
      <leg mode="car"/>
      <activity type="camp" x="751832" y="5732910"/>
    </plan>
  </person>
  <!--============================================================================-->
  <person id="43">
    <plan selected="yes">
      <activity end_time="06:00:00" type="camp" x="751832" y="5732910"/>
      <leg mode="car"/>
      <activity type="camp" x="751832" y="5732910"/>
    </plan>
  </person>
  <!--============================================================================-->
  <person id="44">
    <plan selected="yes">
      <activity end_time="06:00:00" type="camp" x="751832" y="5732910"/>
      <leg mode="car"/>
      <activity type="camp" x="751832" y="5732910"/>
    </plan>
  </person>
  <!--============================================================================-->
  <person id="45">
    <plan selected="yes">
      <activity end_time="06:00:00" type="camp" x="751832" y="5732910"/>
      <leg mode="car"/>
      <activity type="camp" x="751832" y="5732910"/>
    </plan>
  </person>
  <!--============================================================================-->
  <person id="46">
    <plan selected="yes">
      <activity end_time="06:00:00" type="camp" x="751832" y="5732910"/>
      <leg mode="car"/>
      <activity type="camp" x="751832" y="5732910"/>
    </plan>
  </person>
  <!--============================================================================-->
  <person id="47">
    <plan selected="yes">
      <activity end_time="06:00:00" type="camp" x="751832" y="5732910"/>
      <leg mode="car"/>
      <activity type="camp" x="751832" y="5732910"/>
    </plan>
  </person>
  <!--============================================================================-->
  <person id="48">
    <plan selected="yes">
      <activity end_time="06:00:00" type="camp" x="751832" y="5732910"/>
      <leg mode="car"/>
      <activity type="camp" x="751832" y="5732910"/>
    </plan>
  </person>
  <!--============================================================================-->
  <person id="49">
    <plan selected="yes">
      <activity end_time="06:00:00" type="camp" x="751832" y="5732910"/>
      <leg mode="car"/>
      <activity type="camp" x="751832" y="5732910"/>
    </plan>
  </person>
</population>
