<?xml version="1.0" encoding="utf-8"?>
<!DOCTYPE population SYSTEM "http://www.matsim.org/files/dtd/population_v5.dtd">

<population>

<!-- ====================================================================== -->

	<person id="1" employed="no">
		<plan selected="yes">
			<act type="home" x="239180.0" y="5901743.0" end_time="06:00:00" />
			<leg mode="car">
			</leg>
			<act type="home" x="239180.0" y="5901743.0" />
		</plan>

	</person>

<!-- ====================================================================== -->

	<person id="10" employed="no">
		<plan selected="yes">
			<act type="home" x="239132.0" y="5901946.0" end_time="06:00:00" />
			<leg mode="car">
			</leg>
			<act type="home" x="239132.0" y="5901946.0" />
		</plan>

	</person>

<!-- ====================================================================== -->

	<person id="100" employed="no">
		<plan selected="yes">
			<act type="home" x="239206.0" y="5901718.0" end_time="06:00:00" />
			<leg mode="car">
			</leg>
			<act type="home" x="239206.0" y="5901718.0" />
		</plan>

	</person>

<!-- ====================================================================== -->

	<person id="101" employed="no">
		<plan selected="yes">
			<act type="home" x="239220.0" y="5901878.0" end_time="06:00:00" />
			<leg mode="car">
			</leg>
			<act type="home" x="239220.0" y="5901878.0" />
		</plan>

	</person>

<!-- ====================================================================== -->

	<person id="102" employed="no">
		<plan selected="yes">
			<act type="home" x="239249.0" y="5901740.0" end_time="06:00:00" />
			<leg mode="car">
			</leg>
			<act type="home" x="239249.0" y="5901740.0" />
		</plan>

	</person>

<!-- ====================================================================== -->

	<person id="103" employed="no">
		<plan selected="yes">
			<act type="home" x="239061.0" y="5901942.0" end_time="06:00:00" />
			<leg mode="car">
			</leg>
			<act type="home" x="239061.0" y="5901942.0" />
		</plan>

	</person>

<!-- ====================================================================== -->

	<person id="104" employed="no">
		<plan selected="yes">
			<act type="home" x="239225.0" y="5901757.0" end_time="06:00:00" />
			<leg mode="car">
			</leg>
			<act type="home" x="239225.0" y="5901757.0" />
		</plan>

	</person>

<!-- ====================================================================== -->

	<person id="105" employed="no">
		<plan selected="yes">
			<act type="home" x="239108.0" y="5901921.0" end_time="06:00:00" />
			<leg mode="car">
			</leg>
			<act type="home" x="239108.0" y="5901921.0" />
		</plan>

	</person>

<!-- ====================================================================== -->

	<person id="106" employed="no">
		<plan selected="yes">
			<act type="home" x="239168.0" y="5901829.0" end_time="06:00:00" />
			<leg mode="car">
			</leg>
			<act type="home" x="239168.0" y="5901829.0" />
		</plan>

	</person>

<!-- ====================================================================== -->

	<person id="107" employed="no">
		<plan selected="yes">
			<act type="home" x="239160.0" y="5901728.0" end_time="06:00:00" />
			<leg mode="car">
			</leg>
			<act type="home" x="239160.0" y="5901728.0" />
		</plan>

	</person>

<!-- ====================================================================== -->

	<person id="108" employed="no">
		<plan selected="yes">
			<act type="home" x="239244.0" y="5902076.0" end_time="06:00:00" />
			<leg mode="car">
			</leg>
			<act type="home" x="239244.0" y="5902076.0" />
		</plan>

	</person>

<!-- ====================================================================== -->

	<person id="109" employed="no">
		<plan selected="yes">
			<act type="home" x="239150.0" y="5902049.0" end_time="06:00:00" />
			<leg mode="car">
			</leg>
			<act type="home" x="239150.0" y="5902049.0" />
		</plan>

	</person>

<!-- ====================================================================== -->

	<person id="11" employed="no">
		<plan selected="yes">
			<act type="home" x="239098.0" y="5901844.0" end_time="06:00:00" />
			<leg mode="car">
			</leg>
			<act type="home" x="239098.0" y="5901844.0" />
		</plan>

	</person>

<!-- ====================================================================== -->

	<person id="110" employed="no">
		<plan selected="yes">
			<act type="home" x="239010.0" y="5902035.0" end_time="06:00:00" />
			<leg mode="car">
			</leg>
			<act type="home" x="239010.0" y="5902035.0" />
		</plan>

	</person>

<!-- ====================================================================== -->

	<person id="111" employed="no">
		<plan selected="yes">
			<act type="home" x="239173.0" y="5901990.0" end_time="06:00:00" />
			<leg mode="car">
			</leg>
			<act type="home" x="239173.0" y="5901990.0" />
		</plan>

	</person>

<!-- ====================================================================== -->

	<person id="112" employed="no">
		<plan selected="yes">
			<act type="home" x="239076.0" y="5902030.0" end_time="06:00:00" />
			<leg mode="car">
			</leg>
			<act type="home" x="239076.0" y="5902030.0" />
		</plan>

	</person>

<!-- ====================================================================== -->

	<person id="113" employed="no">
		<plan selected="yes">
			<act type="home" x="239051.0" y="5901802.0" end_time="06:00:00" />
			<leg mode="car">
			</leg>
			<act type="home" x="239051.0" y="5901802.0" />
		</plan>

	</person>

<!-- ====================================================================== -->

	<person id="114" employed="no">
		<plan selected="yes">
			<act type="home" x="239149.0" y="5902009.0" end_time="06:00:00" />
			<leg mode="car">
			</leg>
			<act type="home" x="239149.0" y="5902009.0" />
		</plan>

	</person>

<!-- ====================================================================== -->

	<person id="115" employed="no">
		<plan selected="yes">
			<act type="home" x="239129.0" y="5901803.0" end_time="06:00:00" />
			<leg mode="car">
			</leg>
			<act type="home" x="239129.0" y="5901803.0" />
		</plan>

	</person>

<!-- ====================================================================== -->

	<person id="116" employed="no">
		<plan selected="yes">
			<act type="home" x="239028.0" y="5901768.0" end_time="06:00:00" />
			<leg mode="car">
			</leg>
			<act type="home" x="239028.0" y="5901768.0" />
		</plan>

	</person>

<!-- ====================================================================== -->

	<person id="117" employed="no">
		<plan selected="yes">
			<act type="home" x="239195.0" y="5901849.0" end_time="06:00:00" />
			<leg mode="car">
			</leg>
			<act type="home" x="239195.0" y="5901849.0" />
		</plan>

	</person>

<!-- ====================================================================== -->

	<person id="118" employed="no">
		<plan selected="yes">
			<act type="home" x="239017.0" y="5901839.0" end_time="06:00:00" />
			<leg mode="car">
			</leg>
			<act type="home" x="239017.0" y="5901839.0" />
		</plan>

	</person>

<!-- ====================================================================== -->

	<person id="119" employed="no">
		<plan selected="yes">
			<act type="home" x="239187.0" y="5901849.0" end_time="06:00:00" />
			<leg mode="car">
			</leg>
			<act type="home" x="239187.0" y="5901849.0" />
		</plan>

	</person>

<!-- ====================================================================== -->

	<person id="12" employed="no">
		<plan selected="yes">
			<act type="home" x="239118.0" y="5902043.0" end_time="06:00:00" />
			<leg mode="car">
			</leg>
			<act type="home" x="239118.0" y="5902043.0" />
		</plan>

	</person>

<!-- ====================================================================== -->

	<person id="120" employed="no">
		<plan selected="yes">
			<act type="home" x="239031.0" y="5901978.0" end_time="06:00:00" />
			<leg mode="car">
			</leg>
			<act type="home" x="239031.0" y="5901978.0" />
		</plan>

	</person>

<!-- ====================================================================== -->

	<person id="121" employed="no">
		<plan selected="yes">
			<act type="home" x="239111.0" y="5901878.0" end_time="06:00:00" />
			<leg mode="car">
			</leg>
			<act type="home" x="239111.0" y="5901878.0" />
		</plan>

	</person>

<!-- ====================================================================== -->

	<person id="122" employed="no">
		<plan selected="yes">
			<act type="home" x="239173.0" y="5901866.0" end_time="06:00:00" />
			<leg mode="car">
			</leg>
			<act type="home" x="239173.0" y="5901866.0" />
		</plan>

	</person>

<!-- ====================================================================== -->

	<person id="123" employed="no">
		<plan selected="yes">
			<act type="home" x="239063.0" y="5901925.0" end_time="06:00:00" />
			<leg mode="car">
			</leg>
			<act type="home" x="239063.0" y="5901925.0" />
		</plan>

	</person>

<!-- ====================================================================== -->

	<person id="124" employed="no">
		<plan selected="yes">
			<act type="home" x="239083.0" y="5901901.0" end_time="06:00:00" />
			<leg mode="car">
			</leg>
			<act type="home" x="239083.0" y="5901901.0" />
		</plan>

	</person>

<!-- ====================================================================== -->

	<person id="125" employed="no">
		<plan selected="yes">
			<act type="home" x="239265.0" y="5902067.0" end_time="06:00:00" />
			<leg mode="car">
			</leg>
			<act type="home" x="239265.0" y="5902067.0" />
		</plan>

	</person>

<!-- ====================================================================== -->

	<person id="126" employed="no">
		<plan selected="yes">
			<act type="home" x="239062.0" y="5901976.0" end_time="06:00:00" />
			<leg mode="car">
			</leg>
			<act type="home" x="239062.0" y="5901976.0" />
		</plan>

	</person>

<!-- ====================================================================== -->

	<person id="127" employed="no">
		<plan selected="yes">
			<act type="home" x="239191.0" y="5901773.0" end_time="06:00:00" />
			<leg mode="car">
			</leg>
			<act type="home" x="239191.0" y="5901773.0" />
		</plan>

	</person>

<!-- ====================================================================== -->

	<person id="128" employed="no">
		<plan selected="yes">
			<act type="home" x="239132.0" y="5901892.0" end_time="06:00:00" />
			<leg mode="car">
			</leg>
			<act type="home" x="239132.0" y="5901892.0" />
		</plan>

	</person>

<!-- ====================================================================== -->

	<person id="129" employed="no">
		<plan selected="yes">
			<act type="home" x="239013.0" y="5901803.0" end_time="06:00:00" />
			<leg mode="car">
			</leg>
			<act type="home" x="239013.0" y="5901803.0" />
		</plan>

	</person>

<!-- ====================================================================== -->

	<person id="13" employed="no">
		<plan selected="yes">
			<act type="home" x="239224.0" y="5901872.0" end_time="06:00:00" />
			<leg mode="car">
			</leg>
			<act type="home" x="239224.0" y="5901872.0" />
		</plan>

	</person>

<!-- ====================================================================== -->

	<person id="130" employed="no">
		<plan selected="yes">
			<act type="home" x="239051.0" y="5901731.0" end_time="06:00:00" />
			<leg mode="car">
			</leg>
			<act type="home" x="239051.0" y="5901731.0" />
		</plan>

	</person>

<!-- ====================================================================== -->

	<person id="131" employed="no">
		<plan selected="yes">
			<act type="home" x="238992.0" y="5902043.0" end_time="06:00:00" />
			<leg mode="car">
			</leg>
			<act type="home" x="238992.0" y="5902043.0" />
		</plan>

	</person>

<!-- ====================================================================== -->

	<person id="132" employed="no">
		<plan selected="yes">
			<act type="home" x="239000.0" y="5901821.0" end_time="06:00:00" />
			<leg mode="car">
			</leg>
			<act type="home" x="239000.0" y="5901821.0" />
		</plan>

	</person>

<!-- ====================================================================== -->

	<person id="133" employed="no">
		<plan selected="yes">
			<act type="home" x="239263.0" y="5901862.0" end_time="06:00:00" />
			<leg mode="car">
			</leg>
			<act type="home" x="239263.0" y="5901862.0" />
		</plan>

	</person>

<!-- ====================================================================== -->

	<person id="134" employed="no">
		<plan selected="yes">
			<act type="home" x="239149.0" y="5901899.0" end_time="06:00:00" />
			<leg mode="car">
			</leg>
			<act type="home" x="239149.0" y="5901899.0" />
		</plan>

	</person>

<!-- ====================================================================== -->

	<person id="135" employed="no">
		<plan selected="yes">
			<act type="home" x="239031.0" y="5901921.0" end_time="06:00:00" />
			<leg mode="car">
			</leg>
			<act type="home" x="239031.0" y="5901921.0" />
		</plan>

	</person>

<!-- ====================================================================== -->

	<person id="136" employed="no">
		<plan selected="yes">
			<act type="home" x="238999.0" y="5901711.0" end_time="06:00:00" />
			<leg mode="car">
			</leg>
			<act type="home" x="238999.0" y="5901711.0" />
		</plan>

	</person>

<!-- ====================================================================== -->

	<person id="137" employed="no">
		<plan selected="yes">
			<act type="home" x="239218.0" y="5901969.0" end_time="06:00:00" />
			<leg mode="car">
			</leg>
			<act type="home" x="239218.0" y="5901969.0" />
		</plan>

	</person>

<!-- ====================================================================== -->

	<person id="138" employed="no">
		<plan selected="yes">
			<act type="home" x="239092.0" y="5901966.0" end_time="06:00:00" />
			<leg mode="car">
			</leg>
			<act type="home" x="239092.0" y="5901966.0" />
		</plan>

	</person>

<!-- ====================================================================== -->

	<person id="139" employed="no">
		<plan selected="yes">
			<act type="home" x="239156.0" y="5902139.0" end_time="06:00:00" />
			<leg mode="car">
			</leg>
			<act type="home" x="239156.0" y="5902139.0" />
		</plan>

	</person>

<!-- ====================================================================== -->

	<person id="14" employed="no">
		<plan selected="yes">
			<act type="home" x="239269.0" y="5901746.0" end_time="06:00:00" />
			<leg mode="car">
			</leg>
			<act type="home" x="239269.0" y="5901746.0" />
		</plan>

	</person>

<!-- ====================================================================== -->

	<person id="140" employed="no">
		<plan selected="yes">
			<act type="home" x="239055.0" y="5901740.0" end_time="06:00:00" />
			<leg mode="car">
			</leg>
			<act type="home" x="239055.0" y="5901740.0" />
		</plan>

	</person>

<!-- ====================================================================== -->

	<person id="141" employed="no">
		<plan selected="yes">
			<act type="home" x="239216.0" y="5901704.0" end_time="06:00:00" />
			<leg mode="car">
			</leg>
			<act type="home" x="239216.0" y="5901704.0" />
		</plan>

	</person>

<!-- ====================================================================== -->

	<person id="142" employed="no">
		<plan selected="yes">
			<act type="home" x="239087.0" y="5901922.0" end_time="06:00:00" />
			<leg mode="car">
			</leg>
			<act type="home" x="239087.0" y="5901922.0" />
		</plan>

	</person>

<!-- ====================================================================== -->

	<person id="143" employed="no">
		<plan selected="yes">
			<act type="home" x="239078.0" y="5901970.0" end_time="06:00:00" />
			<leg mode="car">
			</leg>
			<act type="home" x="239078.0" y="5901970.0" />
		</plan>

	</person>

<!-- ====================================================================== -->

	<person id="144" employed="no">
		<plan selected="yes">
			<act type="home" x="239206.0" y="5901853.0" end_time="06:00:00" />
			<leg mode="car">
			</leg>
			<act type="home" x="239206.0" y="5901853.0" />
		</plan>

	</person>

<!-- ====================================================================== -->

	<person id="145" employed="no">
		<plan selected="yes">
			<act type="home" x="239045.0" y="5901966.0" end_time="06:00:00" />
			<leg mode="car">
			</leg>
			<act type="home" x="239045.0" y="5901966.0" />
		</plan>

	</person>

<!-- ====================================================================== -->

	<person id="146" employed="no">
		<plan selected="yes">
			<act type="home" x="239021.0" y="5901814.0" end_time="06:00:00" />
			<leg mode="car">
			</leg>
			<act type="home" x="239021.0" y="5901814.0" />
		</plan>

	</person>

<!-- ====================================================================== -->

	<person id="147" employed="no">
		<plan selected="yes">
			<act type="home" x="239246.0" y="5901846.0" end_time="06:00:00" />
			<leg mode="car">
			</leg>
			<act type="home" x="239246.0" y="5901846.0" />
		</plan>

	</person>

<!-- ====================================================================== -->

	<person id="148" employed="no">
		<plan selected="yes">
			<act type="home" x="239069.0" y="5901834.0" end_time="06:00:00" />
			<leg mode="car">
			</leg>
			<act type="home" x="239069.0" y="5901834.0" />
		</plan>

	</person>

<!-- ====================================================================== -->

	<person id="149" employed="no">
		<plan selected="yes">
			<act type="home" x="239017.0" y="5902033.0" end_time="06:00:00" />
			<leg mode="car">
			</leg>
			<act type="home" x="239017.0" y="5902033.0" />
		</plan>

	</person>

<!-- ====================================================================== -->

	<person id="15" employed="no">
		<plan selected="yes">
			<act type="home" x="239056.0" y="5902050.0" end_time="06:00:00" />
			<leg mode="car">
			</leg>
			<act type="home" x="239056.0" y="5902050.0" />
		</plan>

	</person>

<!-- ====================================================================== -->

	<person id="150" employed="no">
		<plan selected="yes">
			<act type="home" x="239166.0" y="5901878.0" end_time="06:00:00" />
			<leg mode="car">
			</leg>
			<act type="home" x="239166.0" y="5901878.0" />
		</plan>

	</person>

<!-- ====================================================================== -->

	<person id="151" employed="no">
		<plan selected="yes">
			<act type="home" x="239145.0" y="5902081.0" end_time="06:00:00" />
			<leg mode="car">
			</leg>
			<act type="home" x="239145.0" y="5902081.0" />
		</plan>

	</person>

<!-- ====================================================================== -->

	<person id="152" employed="no">
		<plan selected="yes">
			<act type="home" x="239188.0" y="5901937.0" end_time="06:00:00" />
			<leg mode="car">
			</leg>
			<act type="home" x="239188.0" y="5901937.0" />
		</plan>

	</person>

<!-- ====================================================================== -->

	<person id="153" employed="no">
		<plan selected="yes">
			<act type="home" x="239071.0" y="5901736.0" end_time="06:00:00" />
			<leg mode="car">
			</leg>
			<act type="home" x="239071.0" y="5901736.0" />
		</plan>

	</person>

<!-- ====================================================================== -->

	<person id="154" employed="no">
		<plan selected="yes">
			<act type="home" x="239209.0" y="5901702.0" end_time="06:00:00" />
			<leg mode="car">
			</leg>
			<act type="home" x="239209.0" y="5901702.0" />
		</plan>

	</person>

<!-- ====================================================================== -->

	<person id="155" employed="no">
		<plan selected="yes">
			<act type="home" x="239084.0" y="5902104.0" end_time="06:00:00" />
			<leg mode="car">
			</leg>
			<act type="home" x="239084.0" y="5902104.0" />
		</plan>

	</person>

<!-- ====================================================================== -->

	<person id="156" employed="no">
		<plan selected="yes">
			<act type="home" x="238990.0" y="5901740.0" end_time="06:00:00" />
			<leg mode="car">
			</leg>
			<act type="home" x="238990.0" y="5901740.0" />
		</plan>

	</person>

<!-- ====================================================================== -->

	<person id="157" employed="no">
		<plan selected="yes">
			<act type="home" x="239240.0" y="5901846.0" end_time="06:00:00" />
			<leg mode="car">
			</leg>
			<act type="home" x="239240.0" y="5901846.0" />
		</plan>

	</person>

<!-- ====================================================================== -->

	<person id="158" employed="no">
		<plan selected="yes">
			<act type="home" x="239030.0" y="5902084.0" end_time="06:00:00" />
			<leg mode="car">
			</leg>
			<act type="home" x="239030.0" y="5902084.0" />
		</plan>

	</person>

<!-- ====================================================================== -->

	<person id="159" employed="no">
		<plan selected="yes">
			<act type="home" x="239194.0" y="5901866.0" end_time="06:00:00" />
			<leg mode="car">
			</leg>
			<act type="home" x="239194.0" y="5901866.0" />
		</plan>

	</person>

<!-- ====================================================================== -->

	<person id="16" employed="no">
		<plan selected="yes">
			<act type="home" x="239111.0" y="5901764.0" end_time="06:00:00" />
			<leg mode="car">
			</leg>
			<act type="home" x="239111.0" y="5901764.0" />
		</plan>

	</person>

<!-- ====================================================================== -->

	<person id="160" employed="no">
		<plan selected="yes">
			<act type="home" x="239264.0" y="5902062.0" end_time="06:00:00" />
			<leg mode="car">
			</leg>
			<act type="home" x="239264.0" y="5902062.0" />
		</plan>

	</person>

<!-- ====================================================================== -->

	<person id="161" employed="no">
		<plan selected="yes">
			<act type="home" x="239237.0" y="5902022.0" end_time="06:00:00" />
			<leg mode="car">
			</leg>
			<act type="home" x="239237.0" y="5902022.0" />
		</plan>

	</person>

<!-- ====================================================================== -->

	<person id="162" employed="no">
		<plan selected="yes">
			<act type="home" x="238998.0" y="5901959.0" end_time="06:00:00" />
			<leg mode="car">
			</leg>
			<act type="home" x="238998.0" y="5901959.0" />
		</plan>

	</person>

<!-- ====================================================================== -->

	<person id="163" employed="no">
		<plan selected="yes">
			<act type="home" x="239261.0" y="5901904.0" end_time="06:00:00" />
			<leg mode="car">
			</leg>
			<act type="home" x="239261.0" y="5901904.0" />
		</plan>

	</person>

<!-- ====================================================================== -->

	<person id="164" employed="no">
		<plan selected="yes">
			<act type="home" x="239210.0" y="5901891.0" end_time="06:00:00" />
			<leg mode="car">
			</leg>
			<act type="home" x="239210.0" y="5901891.0" />
		</plan>

	</person>

<!-- ====================================================================== -->

	<person id="165" employed="no">
		<plan selected="yes">
			<act type="home" x="239189.0" y="5901902.0" end_time="06:00:00" />
			<leg mode="car">
			</leg>
			<act type="home" x="239189.0" y="5901902.0" />
		</plan>

	</person>

<!-- ====================================================================== -->

	<person id="166" employed="no">
		<plan selected="yes">
			<act type="home" x="239191.0" y="5901924.0" end_time="06:00:00" />
			<leg mode="car">
			</leg>
			<act type="home" x="239191.0" y="5901924.0" />
		</plan>

	</person>

<!-- ====================================================================== -->

	<person id="167" employed="no">
		<plan selected="yes">
			<act type="home" x="239208.0" y="5901997.0" end_time="06:00:00" />
			<leg mode="car">
			</leg>
			<act type="home" x="239208.0" y="5901997.0" />
		</plan>

	</person>

<!-- ====================================================================== -->

	<person id="168" employed="no">
		<plan selected="yes">
			<act type="home" x="239039.0" y="5901909.0" end_time="06:00:00" />
			<leg mode="car">
			</leg>
			<act type="home" x="239039.0" y="5901909.0" />
		</plan>

	</person>

<!-- ====================================================================== -->

	<person id="169" employed="no">
		<plan selected="yes">
			<act type="home" x="239093.0" y="5901934.0" end_time="06:00:00" />
			<leg mode="car">
			</leg>
			<act type="home" x="239093.0" y="5901934.0" />
		</plan>

	</person>

<!-- ====================================================================== -->

	<person id="17" employed="no">
		<plan selected="yes">
			<act type="home" x="239002.0" y="5902009.0" end_time="06:00:00" />
			<leg mode="car">
			</leg>
			<act type="home" x="239002.0" y="5902009.0" />
		</plan>

	</person>

<!-- ====================================================================== -->

	<person id="170" employed="no">
		<plan selected="yes">
			<act type="home" x="239202.0" y="5902053.0" end_time="06:00:00" />
			<leg mode="car">
			</leg>
			<act type="home" x="239202.0" y="5902053.0" />
		</plan>

	</person>

<!-- ====================================================================== -->

	<person id="171" employed="no">
		<plan selected="yes">
			<act type="home" x="239230.0" y="5901870.0" end_time="06:00:00" />
			<leg mode="car">
			</leg>
			<act type="home" x="239230.0" y="5901870.0" />
		</plan>

	</person>

<!-- ====================================================================== -->

	<person id="172" employed="no">
		<plan selected="yes">
			<act type="home" x="239252.0" y="5901859.0" end_time="06:00:00" />
			<leg mode="car">
			</leg>
			<act type="home" x="239252.0" y="5901859.0" />
		</plan>

	</person>

<!-- ====================================================================== -->

	<person id="173" employed="no">
		<plan selected="yes">
			<act type="home" x="239072.0" y="5901904.0" end_time="06:00:00" />
			<leg mode="car">
			</leg>
			<act type="home" x="239072.0" y="5901904.0" />
		</plan>

	</person>

<!-- ====================================================================== -->

	<person id="174" employed="no">
		<plan selected="yes">
			<act type="home" x="239268.0" y="5901906.0" end_time="06:00:00" />
			<leg mode="car">
			</leg>
			<act type="home" x="239268.0" y="5901906.0" />
		</plan>

	</person>

<!-- ====================================================================== -->

	<person id="175" employed="no">
		<plan selected="yes">
			<act type="home" x="239156.0" y="5901897.0" end_time="06:00:00" />
			<leg mode="car">
			</leg>
			<act type="home" x="239156.0" y="5901897.0" />
		</plan>

	</person>

<!-- ====================================================================== -->

	<person id="176" employed="no">
		<plan selected="yes">
			<act type="home" x="239124.0" y="5902025.0" end_time="06:00:00" />
			<leg mode="car">
			</leg>
			<act type="home" x="239124.0" y="5902025.0" />
		</plan>

	</person>

<!-- ====================================================================== -->

	<person id="177" employed="no">
		<plan selected="yes">
			<act type="home" x="239083.0" y="5902087.0" end_time="06:00:00" />
			<leg mode="car">
			</leg>
			<act type="home" x="239083.0" y="5902087.0" />
		</plan>

	</person>

<!-- ====================================================================== -->

	<person id="178" employed="no">
		<plan selected="yes">
			<act type="home" x="239052.0" y="5902058.0" end_time="06:00:00" />
			<leg mode="car">
			</leg>
			<act type="home" x="239052.0" y="5902058.0" />
		</plan>

	</person>

<!-- ====================================================================== -->

	<person id="179" employed="no">
		<plan selected="yes">
			<act type="home" x="239175.0" y="5901759.0" end_time="06:00:00" />
			<leg mode="car">
			</leg>
			<act type="home" x="239175.0" y="5901759.0" />
		</plan>

	</person>

<!-- ====================================================================== -->

	<person id="18" employed="no">
		<plan selected="yes">
			<act type="home" x="239072.0" y="5902145.0" end_time="06:00:00" />
			<leg mode="car">
			</leg>
			<act type="home" x="239072.0" y="5902145.0" />
		</plan>

	</person>

<!-- ====================================================================== -->

	<person id="180" employed="no">
		<plan selected="yes">
			<act type="home" x="239017.0" y="5902140.0" end_time="06:00:00" />
			<leg mode="car">
			</leg>
			<act type="home" x="239017.0" y="5902140.0" />
		</plan>

	</person>

<!-- ====================================================================== -->

	<person id="181" employed="no">
		<plan selected="yes">
			<act type="home" x="239040.0" y="5901714.0" end_time="06:00:00" />
			<leg mode="car">
			</leg>
			<act type="home" x="239040.0" y="5901714.0" />
		</plan>

	</person>

<!-- ====================================================================== -->

	<person id="182" employed="no">
		<plan selected="yes">
			<act type="home" x="239200.0" y="5901864.0" end_time="06:00:00" />
			<leg mode="car">
			</leg>
			<act type="home" x="239200.0" y="5901864.0" />
		</plan>

	</person>

<!-- ====================================================================== -->

	<person id="183" employed="no">
		<plan selected="yes">
			<act type="home" x="239244.0" y="5902043.0" end_time="06:00:00" />
			<leg mode="car">
			</leg>
			<act type="home" x="239244.0" y="5902043.0" />
		</plan>

	</person>

<!-- ====================================================================== -->

	<person id="184" employed="no">
		<plan selected="yes">
			<act type="home" x="239029.0" y="5901901.0" end_time="06:00:00" />
			<leg mode="car">
			</leg>
			<act type="home" x="239029.0" y="5901901.0" />
		</plan>

	</person>

<!-- ====================================================================== -->

	<person id="185" employed="no">
		<plan selected="yes">
			<act type="home" x="239233.0" y="5901719.0" end_time="06:00:00" />
			<leg mode="car">
			</leg>
			<act type="home" x="239233.0" y="5901719.0" />
		</plan>

	</person>
