<?xml version="1.0" encoding="utf-8"?>
<!DOCTYPE population SYSTEM "http://www.matsim.org/files/dtd/population_v6.dtd">

<population>
 	<person id= "0" >
    <attributes>
      <attribute name="BDIAgentType" class="java.lang.String" >io.github.agentsoz.ees.agents.bushfire.Resident</attribute>
			<attribute name="InitialResponseThreshold" class="java.lang.Double" >1.0</attribute>
			<attribute name="FinalResponseThreshold"   class="java.lang.Double" >1.0</attribute>
    </attributes>
    <plan selected="yes">
      <activity type="home" x="-25000" y="-5000" end_time="01:00:00" />
      <leg mode="car" />
      <activity type="work" x="5000" y="0" end_time="02:00:00" />
      <leg mode="car" />
      <activity type="home" x="-25000" y="-5000"  end_time="03:00:00" />
			<leg mode="car" />
      <activity type="work" x="5000" y="0" end_time="04:00:00" />
      <leg mode="car" />
      <activity type="home" x="-25000" y="-5000" />
    </plan>
  </person>
	<person id= "1" >
    <attributes>
      <attribute name="BDIAgentType" class="java.lang.String" >io.github.agentsoz.ees.agents.bushfire.Resident</attribute>
			<attribute name="InitialResponseThreshold" class="java.lang.Double" >1.0</attribute>
			<attribute name="FinalResponseThreshold"   class="java.lang.Double" >1.0</attribute>
    </attributes>
    <plan selected="yes">
      <activity type="home" x="-25000" y="-5000" end_time="01:00:10" />
      <leg mode="car" />
      <activity type="work" x="5000" y="0" end_time="02:00:10" />
      <leg mode="car" />
      <activity type="home" x="-25000" y="-5000"  end_time="03:00:10" />
			<leg mode="car" />
      <activity type="work" x="5000" y="0" end_time="04:00:10" />
      <leg mode="car" />
      <activity type="home" x="-25000" y="-5000" />
    </plan>
  </person>
	<person id= "2" >
    <attributes>
      <attribute name="BDIAgentType" class="java.lang.String" >io.github.agentsoz.ees.agents.bushfire.Resident</attribute>
			<attribute name="InitialResponseThreshold" class="java.lang.Double" >1.0</attribute>
			<attribute name="FinalResponseThreshold"   class="java.lang.Double" >1.0</attribute>
    </attributes>
    <plan selected="yes">
      <activity type="home" x="-25000" y="-5000" end_time="01:00:20" />
      <leg mode="car" />
      <activity type="work" x="5000" y="0" end_time="02:00:20" />
      <leg mode="car" />
      <activity type="home" x="-25000" y="-5000"  end_time="03:00:20" />
			<leg mode="car" />
      <activity type="work" x="5000" y="0" end_time="04:00:20" />
      <leg mode="car" />
      <activity type="home" x="-25000" y="-5000" />
    </plan>
  </person>
</population>
