<?xml version="1.0" encoding="UTF-8"?>
<!--
  #%L
  BDI-ABM Integration Package
  %%
  Copyright (C) 2014 - 2015 by its authors. See AUTHORS file.
  %%
  This program is free software: you can redistribute it and/or modify
  it under the terms of the GNU Lesser General Public License as
  published by the Free Software Foundation, either version 3 of the
  License, or (at your option) any later version.
  
  This program is distributed in the hope that it will be useful,
  but WITHOUT ANY WARRANTY; without even the implied warranty of
  MERCHANTABILITY or FITNESS FOR A PARTICULAR PURPOSE.  See the
  GNU General Lesser Public License for more details.
  
  You should have received a copy of the GNU General Lesser Public
  License along with this program.  If not, see
  <http://www.gnu.org/licenses/lgpl-3.0.html>.
  #L%
  -->

<!DOCTYPE network SYSTEM "http://www.matsim.org/files/dtd/network_v1.dtd">
<network>

<!-- ====================================================================== -->

	<nodes>
		<node id="1021196736" x="144.5343079" y="-38.2639095" />
		<node id="1021891529" x="144.5230219" y="-38.2526521" />
		<node id="1022217080" x="144.5137671" y="-38.2713896" />
		<node id="1022217097" x="144.518067" y="-38.2708182" />
		<node id="1022217138" x="144.5139677" y="-38.2702952" />
		<node id="1022217144" x="144.5198193" y="-38.2711985" />
		<node id="1105797791" x="144.5282204" y="-38.2633089" />
		<node id="1105797792" x="144.5281242" y="-38.2622241" />
		<node id="1105797984" x="144.5229149" y="-38.2635027" />
		<node id="1111310345" x="144.5174963" y="-38.2648956" />
		<node id="1111310354" x="144.5165346" y="-38.2660963" />
		<node id="1111310359" x="144.5168955" y="-38.2656538" />
		<node id="1111310360" x="144.5182914" y="-38.2638453" />
		<node id="1111310361" x="144.5177354" y="-38.2645529" />
		<node id="1111310369" x="144.5171373" y="-38.2653256" />
		<node id="1111311876" x="144.5149379" y="-38.2615366" />
		<node id="1111312238" x="144.5143735" y="-38.2643138" />
		<node id="1111312239" x="144.5145735" y="-38.2635491" />
		<node id="1111312934" x="144.5139018" y="-38.2624544" />
		<node id="1111313458" x="144.5168793" y="-38.2628235" />
		<node id="1111313459" x="144.5178173" y="-38.2629267" />
		<node id="1111313461" x="144.5179475" y="-38.2623635" />
		<node id="1111313464" x="144.5169042" y="-38.2623087" />
		<node id="1111316156" x="144.5354004" y="-38.2645498" />
		<node id="1199760043" x="144.4359462" y="-38.2495379" />
		<node id="1199760044" x="144.4940809" y="-38.2797717" />
		<node id="1431656246" x="144.4930566" y="-38.2825219" />
		<node id="1569006555" x="144.499633" y="-38.2682495" />
		<node id="1574953504" x="144.4955618" y="-38.2735096" />
		<node id="1574953522" x="144.4960906" y="-38.2735944" />
		<node id="1579228469" x="144.4553804" y="-38.2712839" />
		<node id="1579228477" x="144.4495743" y="-38.2723821" />
		<node id="1579228492" x="144.4536198" y="-38.2721061" />
		<node id="1579228507" x="144.4534114" y="-38.2720109" />
		<node id="1580574191" x="144.4626962" y="-38.2760478" />
		<node id="1702551180" x="144.4943439" y="-38.2826711" />
		<node id="1702551188" x="144.4937272" y="-38.282594" />
		<node id="1702551202" x="144.4934768" y="-38.2831596" />
		<node id="1702551214" x="144.4935988" y="-38.2825665" />
		<node id="1702551240" x="144.4937022" y="-38.2827472" />
		<node id="1702551246" x="144.4935232" y="-38.2827113" />
		<node id="1703785265" x="144.4939401" y="-38.2826404" />
		<node id="1703785269" x="144.4914633" y="-38.2824015" />
		<node id="1703785271" x="144.4928636" y="-38.2824977" />
		<node id="1703785295" x="144.491626" y="-38.2823085" />
		<node id="1703785309" x="144.4914702" y="-38.2825745" />
		<node id="1703785316" x="144.4918884" y="-38.282389" />
		<node id="1703785331" x="144.4937668" y="-38.2826024" />
		<node id="1703785336" x="144.49147" y="-38.282278" />
		<node id="1703785347" x="144.4939473" y="-38.2824994" />
		<node id="1703785352" x="144.4915532" y="-38.2821279" />
		<node id="1703785355" x="144.4915939" y="-38.2824066" />
		<node id="1703785369" x="144.4912179" y="-38.28231" />
		<node id="1703785376" x="144.4935098" y="-38.2826629" />
		<node id="1704317344" x="144.4928725" y="-38.2865519" />
		<node id="1704317623" x="144.454181" y="-38.2840075" />
		<node id="1704317686" x="144.4969726" y="-38.289066" />
		<node id="1704317796" x="144.4509687" y="-38.2833628" />
		<node id="1704317977" x="144.4909931" y="-38.2887987" />
		<node id="1704318105" x="144.4924999" y="-38.2881332" />
		<node id="1704368277" x="144.479525" y="-38.2718217" />
		<node id="1704368283" x="144.4872971" y="-38.2817949" />
		<node id="1704368295" x="144.4905433" y="-38.2822294" />
		<node id="1704368305" x="144.4872389" y="-38.2814881" />
		<node id="1704368331" x="144.4843567" y="-38.273262" />
		<node id="1704368369" x="144.4872431" y="-38.2818615" />
		<node id="1704368391" x="144.4884646" y="-38.274556" />
		<node id="1704368438" x="144.4876366" y="-38.2818916" />
		<node id="1704368440" x="144.4881669" y="-38.2743784" />
		<node id="1704368474" x="144.4885129" y="-38.2747364" />
		<node id="1704368476" x="144.4886195" y="-38.2741707" />
		<node id="1704368477" x="144.4889052" y="-38.2745345" />
		<node id="1704683568" x="144.4921526" y="-38.2749048" />
		<node id="1704683569" x="144.4928414" y="-38.2749869" />
		<node id="1704683586" x="144.4933375" y="-38.2750372" />
		<node id="1704683609" x="144.4884339" y="-38.2745264" />
		<node id="1704683622" x="144.4928748" y="-38.2750382" />
		<node id="1704683632" x="144.4929259" y="-38.274969" />
		<node id="1704683636" x="144.4929159" y="-38.2750295" />
		<node id="1704683638" x="144.4928051" y="-38.2755191" />
		<node id="1704683656" x="144.4927655" y="-38.2750343" />
		<node id="1707002629" x="144.5109297" y="-38.259035" />
		<node id="1707002648" x="144.5109826" y="-38.2590178" />
		<node id="1707002657" x="144.5108921" y="-38.2591966" />
		<node id="1707002660" x="144.5067175" y="-38.25826" />
		<node id="1707002662" x="144.511151" y="-38.2591708" />
		<node id="1707049848" x="144.5094153" y="-38.263468" />
		<node id="1707102466" x="144.515583" y="-38.2551537" />
		<node id="1707102471" x="144.5099665" y="-38.2562568" />
		<node id="1707102477" x="144.5351258" y="-38.2575083" />
		<node id="1707102484" x="144.5098815" y="-38.2545118" />
		<node id="1707102489" x="144.5100617" y="-38.2552363" />
		<node id="1707102500" x="144.5035892" y="-38.2538041" />
		<node id="1707102514" x="144.5187131" y="-38.2557631" />
		<node id="1707102518" x="144.5361974" y="-38.2576438" />
		<node id="1707102561" x="144.5097586" y="-38.2555533" />
		<node id="1707102567" x="144.5355018" y="-38.2574672" />
		<node id="1707102575" x="144.5096635" y="-38.2551872" />
		<node id="1707102584" x="144.5031945" y="-38.2538455" />
		<node id="1707102601" x="144.5373175" y="-38.2490419" />
		<node id="1707102617" x="144.5152659" y="-38.2551658" />
		<node id="1707102635" x="144.5152709" y="-38.2550831" />
		<node id="1707102650" x="144.5152826" y="-38.2553048" />
		<node id="1707102652" x="144.5356533" y="-38.2572587" />
		<node id="1707102660" x="144.5356786" y="-38.2576737" />
		<node id="1707102692" x="144.5153656" y="-38.2551696" />
		<node id="1707102703" x="144.5094636" y="-38.2551626" />
		<node id="1707102706" x="144.5150755" y="-38.2550948" />
		<node id="1707102708" x="144.5354426" y="-38.2576146" />
		<node id="1707102722" x="144.5186385" y="-38.25551" />
		<node id="1707102732" x="144.5099188" y="-38.2563032" />
		<node id="1707102807" x="144.5031718" y="-38.2537691" />
		<node id="1707102814" x="144.5153859" y="-38.2551054" />
		<node id="1707102837" x="144.5356983" y="-38.2574788" />
		<node id="1707102881" x="144.5354943" y="-38.2579972" />
		<node id="1707114747" x="144.5214926" y="-38.2677948" />
		<node id="1707114748" x="144.5214505" y="-38.2696046" />
		<node id="1707114749" x="144.5218848" y="-38.2679136" />
		<node id="1707114760" x="144.5217975" y="-38.2681451" />
		<node id="1707114766" x="144.5260334" y="-38.267015" />
		<node id="1707114772" x="144.5246415" y="-38.2678931" />
		<node id="1707114778" x="144.5251038" y="-38.2671882" />
		<node id="1707114779" x="144.5219107" y="-38.2678567" />
		<node id="1707204182" x="144.5225127" y="-38.266116" />
		<node id="1707204187" x="144.5246532" y="-38.2669779" />
		<node id="1707204190" x="144.5247109" y="-38.2669794" />
		<node id="1707204196" x="144.5243244" y="-38.2669913" />
		<node id="1707204209" x="144.5225731" y="-38.2661136" />
		<node id="1707204216" x="144.5339685" y="-38.2655329" />
		<node id="1707204290" x="144.5226669" y="-38.2657925" />
		<node id="1707204309" x="144.5246786" y="-38.2670271" />
		<node id="1707204456" x="144.5327411" y="-38.2692403" />
		<node id="1707204467" x="144.5326017" y="-38.2692709" />
		<node id="1707204506" x="144.5246833" y="-38.2667998" />
		<node id="1707204586" x="144.5250016" y="-38.267146" />
		<node id="1707204602" x="144.522246" y="-38.2669435" />
		<node id="1707204611" x="144.5250673" y="-38.2671071" />
		<node id="1707204648" x="144.5332181" y="-38.2692118" />
		<node id="1707204654" x="144.522428" y="-38.2664497" />
		<node id="1708194377" x="144.4060819" y="-38.2571671" />
		<node id="1985340722" x="144.5316842" y="-38.258691" />
		<node id="1985340726" x="144.5315736" y="-38.2588806" />
		<node id="1985340728" x="144.5316878" y="-38.2588902" />
		<node id="1985340730" x="144.5317119" y="-38.2589138" />
		<node id="1985340731" x="144.5315274" y="-38.2589153" />
		<node id="1985340737" x="144.5315291" y="-38.2589858" />
		<node id="1985340740" x="144.5316992" y="-38.2589996" />
		<node id="1985340742" x="144.531672" y="-38.2590188" />
		<node id="1985340747" x="144.5315824" y="-38.2591835" />
		<node id="1985340748" x="144.5313124" y="-38.2604612" />
		<node id="1985340754" x="144.531188" y="-38.260674" />
		<node id="1985340755" x="144.5313286" y="-38.2606909" />
		<node id="1985340756" x="144.5311545" y="-38.2607002" />
		<node id="1985340757" x="144.530913" y="-38.2607028" />
		<node id="1985340759" x="144.5313464" y="-38.2607141" />
		<node id="1985340766" x="144.5311474" y="-38.2607815" />
		<node id="1985340768" x="144.5313288" y="-38.2608007" />
		<node id="1985340770" x="144.5312972" y="-38.2608209" />
		<node id="1985340771" x="144.5311954" y="-38.2608212" />
		<node id="1985340776" x="144.5312152" y="-38.2609815" />
		<node id="1985340779" x="144.5241095" y="-38.2617137" />
		<node id="2078536260" x="144.5072545" y="-38.2580759" />
		<node id="2503477391" x="144.4646986" y="-38.2851362" />
		<node id="262915816" x="144.5121304" y="-38.2625537" />
		<node id="268898215" x="144.5337025" y="-38.266437" />
		<node id="268898254" x="144.524621" y="-38.2687786" />
		<node id="268898255" x="144.5246171" y="-38.2692045" />
		<node id="268898258" x="144.5239041" y="-38.2696573" />
		<node id="268898263" x="144.5225934" y="-38.2696198" />
		<node id="268898270" x="144.5226992" y="-38.2703207" />
		<node id="268898322" x="144.5232926" y="-38.2703987" />
		<node id="268898326" x="144.5230757" y="-38.2708254" />
		<node id="268898329" x="144.5221894" y="-38.2708143" />
		<node id="268898333" x="144.5222206" y="-38.2703766" />
		<node id="268898721" x="144.522522" y="-38.2669734" />
		<node id="268898740" x="144.5140403" y="-38.2643808" />
		<node id="268898822" x="144.5147384" y="-38.2667345" />
		<node id="268898847" x="144.5150369" y="-38.2686226" />
		<node id="268898869" x="144.5143666" y="-38.2686005" />
		<node id="268898872" x="144.514553" y="-38.2685597" />
		<node id="268898876" x="144.5146257" y="-38.2687704" />
		<node id="268898877" x="144.5145813" y="-38.2687988" />
		<node id="268898880" x="144.514338" y="-38.2687292" />
		<node id="268898925" x="144.5144138" y="-38.2682577" />
		<node id="268899240" x="144.5143114" y="-38.269033" />
		<node id="268899277" x="144.5139553" y="-38.2701043" />
		<node id="268899667" x="144.4955573" y="-38.2753248" />
		<node id="268899670" x="144.4976697" y="-38.267183" />
		<node id="268900122" x="144.5222258" y="-38.2669959" />
		<node id="268900135" x="144.5253021" y="-38.25632" />
		<node id="270450002" x="144.3925444" y="-38.2570384" />
		<node id="297864145" x="144.4220167" y="-38.272274" />
		<node id="297864146" x="144.4207696" y="-38.2786124" />
		<node id="317546219" x="144.4245254" y="-38.2593979" />
		<node id="317699583" x="144.4266322" y="-38.2484293" />
		<node id="317699605" x="144.4287804" y="-38.237278" />
		<node id="317699615" x="144.3809697" y="-38.239273" />
		<node id="317699628" x="144.4563261" y="-38.2667585" />
		<node id="317699646" x="144.4562193" y="-38.2667432" />
		<node id="317699666" x="144.4555335" y="-38.2687926" />
		<node id="319167628" x="144.4907542" y="-38.2627063" />
		<node id="319167651" x="144.4878338" y="-38.2608004" />
		<node id="319167654" x="144.4886809" y="-38.2744226" />
		<node id="319167664" x="144.4884778" y="-38.2743817" />
		<node id="319167667" x="144.488638" y="-38.2745621" />
		<node id="323067520" x="144.457074" y="-38.278094" />
		<node id="324943034" x="144.5307126" y="-38.2676625" />
		<node id="324943035" x="144.5334994" y="-38.2674184" />
		<node id="324943253" x="144.53312" y="-38.269944" />
		<node id="324943624" x="144.5307015" y="-38.268575" />
		<node id="329902355" x="144.4894692" y="-38.2820992" />
		<node id="329902359" x="144.4901966" y="-38.2783561" />
		<node id="329902363" x="144.4904865" y="-38.2747148" />
		<node id="329902364" x="144.4898237" y="-38.2783107" />
		<node id="331120526" x="144.4598341" y="-38.2744968" />
		<node id="331120554" x="144.4610314" y="-38.2758015" />
		<node id="331120555" x="144.4586756" y="-38.2742642" />
		<node id="331120610" x="144.4608127" y="-38.2766205" />
		<node id="331151419" x="144.4454753" y="-38.2654322" />
		<node id="334434220" x="144.4883886" y="-38.2753994" />
		<node id="334434238" x="144.4903216" y="-38.2756451" />
		<node id="334434247" x="144.4927318" y="-38.2758988" />
		<node id="334434255" x="144.4922356" y="-38.2785957" />
		<node id="334434284" x="144.4953928" y="-38.2790349" />
		<node id="334434296" x="144.4938605" y="-38.282242" />
		<node id="334477989" x="144.5270398" y="-38.2620196" />
		<node id="334477992" x="144.5270837" y="-38.2620331" />
		<node id="334477996" x="144.5271108" y="-38.2620599" />
		<node id="334478001" x="144.527092" y="-38.2621365" />
		<node id="334478004" x="144.5270595" y="-38.2621522" />
		<node id="334478010" x="144.5269816" y="-38.2621438" />
		<node id="334478014" x="144.5269534" y="-38.2621182" />
		<node id="334478020" x="144.5269804" y="-38.2620321" />
		<node id="334478026" x="144.5277874" y="-38.2584155" />
		<node id="334478032" x="144.5278314" y="-38.2584291" />
		<node id="334478041" x="144.5276904" y="-38.2584858" />
		<node id="334478044" x="144.5278646" y="-38.2584976" />
		<node id="334478045" x="144.5277526" y="-38.2584181" />
		<node id="334478049" x="144.5277284" y="-38.258541" />
		<node id="334478065" x="144.5278075" y="-38.2585493" />
		<node id="334478068" x="144.5270119" y="-38.2622645" />
		<node id="334478070" x="144.527292" y="-38.2653265" />
		<node id="334478075" x="144.5270554" y="-38.2619481" />
		<node id="334478077" x="144.5277411" y="-38.2586552" />
		<node id="334478080" x="144.5278088" y="-38.2583303" />
		<node id="334478083" x="144.5281402" y="-38.2566695" />
		<node id="334478088" x="144.5247002" y="-38.2652787" />
		<node id="339573995" x="144.4882228" y="-38.2762903" />
		<node id="339573996" x="144.490163" y="-38.2765331" />
		<node id="339573997" x="144.4925605" y="-38.2768055" />
		<node id="339574105" x="144.5145552" y="-38.2676046" />
		<node id="339574106" x="144.5186051" y="-38.2681013" />
		<node id="339574107" x="144.5215579" y="-38.2687546" />
		<node id="339574108" x="144.5247002" y="-38.264425" />
		<node id="339574109" x="144.5232167" y="-38.2643939" />
		<node id="339574111" x="144.5207216" y="-38.2613538" />
		<node id="339574113" x="144.5217855" y="-38.2558974" />
		<node id="339574114" x="144.5205208" y="-38.2622884" />
		<node id="365496368" x="144.4880508" y="-38.2771732" />
		<node id="365496372" x="144.48998" y="-38.2774017" />
		<node id="365496375" x="144.4923967" y="-38.2776819" />
		<node id="365496869" x="144.5186387" y="-38.2671148" />
		<node id="365496879" x="144.5246957" y="-38.2661382" />
		<node id="365496882" x="144.5273882" y="-38.2661717" />
		<node id="365496883" x="144.5339506" y="-38.26562" />
		<node id="365496884" x="144.5272084" y="-38.264432" />
		<node id="365496886" x="144.5307631" y="-38.2641463" />
		<node id="365496887" x="144.5235302" y="-38.2635506" />
		<node id="365496888" x="144.5271279" y="-38.2635892" />
		<node id="365496894" x="144.5307752" y="-38.2632892" />
		<node id="365501598" x="144.5238561" y="-38.2626651" />
		<node id="365501599" x="144.5206843" y="-38.2615162" />
		<node id="365501600" x="144.5197005" y="-38.2613887" />
		<node id="365501755" x="144.5174285" y="-38.2589931" />
		<node id="365501756" x="144.5177019" y="-38.2591751" />
		<node id="365501776" x="144.5188855" y="-38.2555388" />
		<node id="367119661" x="144.450532" y="-38.2747079" />
		<node id="367119671" x="144.454429" y="-38.2749141" />
		<node id="367119708" x="144.4571488" y="-38.2728035" />
		<node id="367119709" x="144.4527611" y="-38.2751774" />
		<node id="384702013" x="144.5121097" y="-38.2716271" />
		<node id="384702057" x="144.5202411" y="-38.2712668" />
		<node id="384702066" x="144.520705" y="-38.27044" />
		<node id="384702077" x="144.5212354" y="-38.2695999" />
		<node id="384702078" x="144.4878851" y="-38.2780716" />
		<node id="384702080" x="144.4883224" y="-38.2819687" />
		<node id="384702081" x="144.4890537" y="-38.2782243" />
		<node id="435988356" x="144.5096813" y="-38.2633817" />
		<node id="435988367" x="144.5101067" y="-38.2641935" />
		<node id="435988370" x="144.510748" y="-38.2649363" />
		<node id="435988396" x="144.5126476" y="-38.266175" />
		<node id="435988447" x="144.5141413" y="-38.2685408" />
		<node id="435988449" x="144.5143282" y="-38.2686852" />
		<node id="437906694" x="144.4975985" y="-38.2663566" />
		<node id="437906700" x="144.4987448" y="-38.2673998" />
		<node id="437906744" x="144.4946104" y="-38.2770702" />
		<node id="437906752" x="144.4942616" y="-38.2788265" />
		<node id="437906754" x="144.4949358" y="-38.2752443" />
		<node id="445310648" x="144.4874536" y="-38.2803806" />
		<node id="445310649" x="144.4897603" y="-38.2806636" />
		<node id="445310650" x="144.4897297" y="-38.2808524" />
		<node id="445310651" x="144.4917676" y="-38.2810993" />
		<node id="445312738" x="144.4870174" y="-38.2772777" />
		<node id="445312740" x="144.488013" y="-38.2773835" />
		<node id="445312772" x="144.4852066" y="-38.2766463" />
		<node id="445328226" x="144.4606725" y="-38.2767749" />
		<node id="445328229" x="144.4631196" y="-38.2755962" />
		<node id="462094620" x="144.5130725" y="-38.2675563" />
		<node id="462094624" x="144.5145389" y="-38.2676804" />
		<node id="462094625" x="144.5128098" y="-38.2665885" />
		<node id="462094626" x="144.5147254" y="-38.2667964" />
		<node id="462094631" x="144.5148965" y="-38.265412" />
		<node id="462097721" x="144.4939417" y="-38.2751155" />
		<node id="462097722" x="144.4932687" y="-38.2787107" />
		<node id="462097724" x="144.4929823" y="-38.2801393" />
		<node id="462097725" x="144.4928703" y="-38.2801286" />
		<node id="462097726" x="144.4923752" y="-38.282449" />
		<node id="462097729" x="144.4909569" y="-38.2855381" />
		<node id="462097730" x="144.491009" y="-38.2851961" />
		<node id="462097736" x="144.4930728" y="-38.2854309" />
		<node id="462097740" x="144.4872016" y="-38.2818302" />
		<node id="462097742" x="144.4871469" y="-38.2820124" />
		<node id="462097743" x="144.4866362" y="-38.2846106" />
		<node id="462097745" x="144.486808" y="-38.2837291" />
		<node id="462097746" x="144.4900805" y="-38.2841301" />
		<node id="462097747" x="144.4903896" y="-38.2822111" />
		<node id="462097749" x="144.4900247" y="-38.2845093" />
		<node id="469077943" x="144.4718329" y="-38.2858383" />
		<node id="469077967" x="144.486171" y="-38.2866637" />
		<node id="469077986" x="144.4869792" y="-38.2828887" />
		<node id="469077987" x="144.4902015" y="-38.2832519" />
		<node id="469077988" x="144.4888979" y="-38.2848932" />
		<node id="469077989" x="144.4890314" y="-38.284721" />
		<node id="469077991" x="144.4838035" y="-38.2772808" />
		<node id="469078015" x="144.4876366" y="-38.2794081" />
		<node id="469079574" x="144.4856521" y="-38.2735035" />
		<node id="469079579" x="144.4890604" y="-38.2718284" />
		<node id="469115964" x="144.5129028" y="-38.2632788" />
		<node id="469115969" x="144.5136248" y="-38.263988" />
		<node id="469115970" x="144.5117303" y="-38.2655506" />
		<node id="469115975" x="144.5143373" y="-38.2646709" />
		<node id="469117632" x="144.5125791" y="-38.2604429" />
		<node id="469117643" x="144.5152982" y="-38.2615747" />
		<node id="469117645" x="144.5159972" y="-38.2616499" />
		<node id="469117646" x="144.5161152" y="-38.2613979" />
		<node id="469128420" x="144.53089" y="-38.2625591" />
		<node id="469128423" x="144.5320022" y="-38.2571444" />
		<node id="469128424" x="144.5348644" y="-38.2611723" />
		<node id="469128425" x="144.5346963" y="-38.2611555" />
		<node id="469128427" x="144.5350952" y="-38.2593655" />
		<node id="469128428" x="144.5353869" y="-38.257796" />
		<node id="469128429" x="144.5352288" y="-38.2593796" />
		<node id="469128430" x="144.527234" y="-38.2621221" />
		<node id="469128431" x="144.5268157" y="-38.2620642" />
		<node id="469130744" x="144.4842161" y="-38.2753307" />
		<node id="469130748" x="144.4839933" y="-38.2765442" />
		<node id="469130750" x="144.485545" y="-38.2743095" />
		<node id="469130751" x="144.4859036" y="-38.2743656" />
		<node id="469130753" x="144.4864738" y="-38.2745406" />
		<node id="469130755" x="144.4860347" y="-38.2737689" />
		<node id="469598666" x="144.534497" y="-38.2629792" />
		<node id="469600361" x="144.4643857" y="-38.2774159" />
		<node id="469600362" x="144.4661289" y="-38.2678937" />
		<node id="469614523" x="144.4896758" y="-38.2684766" />
		<node id="469614557" x="144.4969073" y="-38.2706406" />
		<node id="471270182" x="144.4868593" y="-38.2731571" />
		<node id="471270183" x="144.4887652" y="-38.2733912" />
		<node id="471270184" x="144.4865636" y="-38.2723331" />
		<node id="471270185" x="144.4889214" y="-38.2725996" />
		<node id="471270201" x="144.4852622" y="-38.2665692" />
		<node id="471270202" x="144.4899276" y="-38.2671044" />
		<node id="471270203" x="144.4976968" y="-38.2680226" />
		<node id="471270825" x="144.52748" y="-38.2670308" />
		<node id="471270827" x="144.5275569" y="-38.267919" />
		<node id="471270828" x="144.5276343" y="-38.2688095" />
		<node id="471270829" x="144.5184418" y="-38.2690285" />
		<node id="471270830" x="144.5178586" y="-38.2716689" />
		<node id="471270831" x="144.518752" y="-38.2673382" />
		<node id="471270833" x="144.513849" y="-38.2702814" />
		<node id="471270834" x="144.5152113" y="-38.2704403" />
		<node id="471270835" x="144.5176297" y="-38.2707573" />
		<node id="471270841" x="144.5150433" y="-38.2716715" />
		<node id="471270847" x="144.5179229" y="-38.2714498" />
		<node id="471270856" x="144.5337221" y="-38.2630356" />
		<node id="471765957" x="144.4880231" y="-38.2625789" />
		<node id="471765964" x="144.4905322" y="-38.2637472" />
		<node id="471765965" x="144.4894821" y="-38.2641711" />
		<node id="471765973" x="144.490371" y="-38.2646311" />
		<node id="471765974" x="144.4864147" y="-38.2632119" />
		<node id="471765975" x="144.4863468" y="-38.2636396" />
		<node id="471765976" x="144.4864128" y="-38.263383" />
		<node id="471765984" x="144.4883309" y="-38.264427" />
		<node id="471765986" x="144.4882972" y="-38.2652495" />
		<node id="471765992" x="144.4900736" y="-38.2662579" />
		<node id="471765993" x="144.486302" y="-38.2638956" />
		<node id="471765994" x="144.4862225" y="-38.2644014" />
		<node id="471765995" x="144.4863031" y="-38.2642009" />
		<node id="471765996" x="144.4861546" y="-38.2647135" />
		<node id="471765997" x="144.4860493" y="-38.265259" />
		<node id="471765998" x="144.4861529" y="-38.2650095" />
		<node id="471765999" x="144.4860039" y="-38.2655543" />
		<node id="471766000" x="144.485948" y="-38.2659346" />
		<node id="471766001" x="144.4860063" y="-38.2658246" />
		<node id="471766007" x="144.4883826" y="-38.2659602" />
		<node id="471766008" x="144.478712" y="-38.2658129" />
		<node id="471766032" x="144.4909862" y="-38.267232" />
		<node id="471766043" x="144.4929885" y="-38.2657354" />
		<node id="471766054" x="144.4949489" y="-38.2676982" />
		<node id="471766056" x="144.4932698" y="-38.2645664" />
		<node id="471766057" x="144.4964513" y="-38.2659968" />
		<node id="471766058" x="144.4962428" y="-38.2671456" />
		<node id="471767787" x="144.4862468" y="-38.2757358" />
		<node id="471767788" x="144.4861026" y="-38.2764538" />
		<node id="471767789" x="144.4872537" y="-38.2754986" />
		<node id="471767790" x="144.4873403" y="-38.2755228" />
		<node id="471767791" x="144.4874414" y="-38.2755197" />
		<node id="471767799" x="144.4871804" y="-38.2747314" />
		<node id="471767800" x="144.4830672" y="-38.2798939" />
		<node id="471767807" x="144.4853604" y="-38.2801496" />
		<node id="471767808" x="144.4859908" y="-38.2802034" />
		<node id="471767809" x="144.4858601" y="-38.2775444" />
		<node id="471767810" x="144.485523" y="-38.2792222" />
		<node id="471767811" x="144.4877795" y="-38.2786426" />
		<node id="471767812" x="144.483619" y="-38.2781754" />
		<node id="471767813" x="144.4857009" y="-38.2784152" />
		<node id="471767814" x="144.4888267" y="-38.2669699" />
		<node id="471767815" x="144.4885984" y="-38.2682129" />
		<node id="471767816" x="144.4871621" y="-38.2678267" />
		<node id="471767817" x="144.4879154" y="-38.2679189" />
		<node id="471767818" x="144.4875637" y="-38.2678771" />
		<node id="471767819" x="144.4877417" y="-38.2668438" />
		<node id="471767820" x="144.4854499" y="-38.2675726" />
		<node id="471767821" x="144.4862972" y="-38.2677135" />
		<node id="471767822" x="144.48677" y="-38.2677671" />
		<node id="471767823" x="144.486476" y="-38.2667123" />
		<node id="482816173" x="144.5124652" y="-38.2612591" />
		<node id="482816175" x="144.5109104" y="-38.2590448" />
		<node id="482816179" x="144.5111517" y="-38.259091" />
		<node id="482816183" x="144.5110228" y="-38.2592465" />
		<node id="482816190" x="144.5108146" y="-38.2593922" />
		<node id="482816192" x="144.5097503" y="-38.2596388" />
		<node id="482816198" x="144.5112176" y="-38.259425" />
		<node id="482816199" x="144.5067819" y="-38.2583166" />
		<node id="482816201" x="144.5072501" y="-38.2581169" />
		<node id="482816203" x="144.5075808" y="-38.2580997" />
		<node id="482816208" x="144.5105258" y="-38.2589776" />
		<node id="482816209" x="144.5131531" y="-38.2624368" />
		<node id="482816210" x="144.513516" y="-38.2624346" />
		<node id="482816213" x="144.5147702" y="-38.2625613" />
		<node id="482816214" x="144.5158224" y="-38.262649" />
		<node id="482816215" x="144.5203301" y="-38.2632033" />
		<node id="482816216" x="144.5146272" y="-38.2633395" />
		<node id="482816217" x="144.5136766" y="-38.2613933" />
		<node id="482816373" x="144.5194796" y="-38.2654532" />
		<node id="482819947" x="144.5141301" y="-38.2694091" />
		<node id="482819950" x="144.5182712" y="-38.2699231" />
		<node id="482821294" x="144.4919724" y="-38.2800224" />
		<node id="482821295" x="144.4933707" y="-38.2801802" />
		<node id="482821296" x="144.4933085" y="-38.2806241" />
		<node id="482821297" x="144.4933999" y="-38.2800529" />
		<node id="490545910" x="144.5201473" y="-38.2637442" />
		<node id="490545911" x="144.5198332" y="-38.2645923" />
		<node id="490545912" x="144.519091" y="-38.2623274" />
		<node id="490545915" x="144.5228673" y="-38.2652891" />
		<node id="490545919" x="144.5163599" y="-38.2627663" />
		<node id="490545920" x="144.511457" y="-38.2615023" />
		<node id="490545921" x="144.511794" y="-38.2598445" />
		<node id="490545931" x="144.5211583" y="-38.2590405" />
		<node id="490545932" x="144.5183653" y="-38.2585901" />
		<node id="490545933" x="144.5181482" y="-38.258098" />
		<node id="490545939" x="144.5186163" y="-38.2570043" />
		<node id="490545941" x="144.5203537" y="-38.2583691" />
		<node id="490545942" x="144.5213281" y="-38.2581755" />
		<node id="490545944" x="144.5208492" y="-38.2557806" />
		<node id="490545945" x="144.5207102" y="-38.2565368" />
		<node id="490545946" x="144.5181699" y="-38.256229" />
		<node id="490545948" x="144.5197192" y="-38.2564202" />
		<node id="490545954" x="144.5173851" y="-38.2561093" />
		<node id="490545957" x="144.5178386" y="-38.2564606" />
		<node id="490545958" x="144.5171904" y="-38.2577477" />
		<node id="490545962" x="144.516102" y="-38.2576555" />
		<node id="490545977" x="144.5124886" y="-38.2580219" />
		<node id="490545978" x="144.511485" y="-38.257715" />
		<node id="490545989" x="144.5162613" y="-38.2569888" />
		<node id="490545990" x="144.5163822" y="-38.2561735" />
		<node id="490545991" x="144.5126911" y="-38.2557077" />
		<node id="490545995" x="144.5132807" y="-38.2548943" />
		<node id="490546002" x="144.51121" y="-38.2588583" />
		<node id="490546007" x="144.5074132" y="-38.2571531" />
		<node id="490546008" x="144.5074669" y="-38.2567908" />
		<node id="490546009" x="144.5076129" y="-38.2559754" />
		<node id="490546010" x="144.5077608" y="-38.2551572" />
		<node id="490546011" x="144.5079189" y="-38.2542977" />
		<node id="490546015" x="144.5044552" y="-38.2558754" />
		<node id="490546021" x="144.5063801" y="-38.257965" />
		<node id="490546023" x="144.5056888" y="-38.2566029" />
		<node id="490546030" x="144.5035869" y="-38.254807" />
		<node id="490697506" x="144.5145696" y="-38.2655577" />
		<node id="490823753" x="144.5086601" y="-38.2573181" />