<?xml version="1.0" encoding="utf-8"?>
<!--
  #%L
  BDI-ABM Integration Package
  %%
  Copyright (C) 2014 - 2015 by its authors. See AUTHORS file.
  %%
  This program is free software: you can redistribute it and/or modify
  it under the terms of the GNU Lesser General Public License as
  published by the Free Software Foundation, either version 3 of the
  License, or (at your option) any later version.
  
  This program is distributed in the hope that it will be useful,
  but WITHOUT ANY WARRANTY; without even the implied warranty of
  MERCHANTABILITY or FITNESS FOR A PARTICULAR PURPOSE.  See the
  GNU General Lesser Public License for more details.
  
  You should have received a copy of the GNU General Lesser Public
  License along with this program.  If not, see
  <http://www.gnu.org/licenses/lgpl-3.0.html>.
  #L%
  -->

<!DOCTYPE population SYSTEM "http://www.matsim.org/files/dtd/population_v5.dtd">

<population>

<!-- ====================================================================== -->

	<person id="1" employed="no">
		<plan selected="yes">
			<act type="home" x="144.49327340000002" y="-38.277646430000004" end_time="06:00:00" />
			<leg mode="car">
			</leg>
			<act type="home" x="144.49327340000002" y="-38.277646430000004" />
		</plan>

	</person>

<!-- ====================================================================== -->

	<person id="10" employed="no">
		<plan selected="yes">
			<act type="home" x="144.49252317000003" y="-38.279315250000025" end_time="06:00:00" />
			<leg mode="car">
			</leg>
			<act type="home" x="144.49252317000003" y="-38.279315250000025" />
		</plan>

	</person>

<!-- ====================================================================== -->

	<person id="100" employed="no">
		<plan selected="yes">
			<act type="home" x="144.48514364000005" y="-38.27315256999998" end_time="06:00:00" />
			<leg mode="car">
			</leg>
			<act type="home" x="144.48514364000005" y="-38.27315256999998" />
		</plan>

	</person>

<!-- ====================================================================== -->

	<person id="11" employed="no">
		<plan selected="yes">
			<act type="home" x="144.49304847999997" y="-38.27530748999999" end_time="06:00:00" />
			<leg mode="car">
			</leg>
			<act type="home" x="144.49304847999997" y="-38.27530748999999" />
		</plan>

	</person>

<!-- ====================================================================== -->

	<person id="12" employed="no">
		<plan selected="yes">
			<act type="home" x="144.49167403" y="-38.26425771999999" end_time="06:00:00" />
			<leg mode="car">
			</leg>
			<act type="home" x="144.49167403" y="-38.26425771999999" />
		</plan>

	</person>

<!-- ====================================================================== -->

	<person id="13" employed="no">
		<plan selected="yes">
			<act type="home" x="144.49607408999998" y="-38.27627615" end_time="06:00:00" />
			<leg mode="car">
			</leg>
			<act type="home" x="144.49607408999998" y="-38.27627615" />
		</plan>

	</person>

<!-- ====================================================================== -->

	<person id="14" employed="no">
		<plan selected="yes">
			<act type="home" x="144.48953094" y="-38.27043121999998" end_time="06:00:00" />
			<leg mode="car">
			</leg>
			<act type="home" x="144.48953094" y="-38.27043121999998" />
		</plan>

	</person>

<!-- ====================================================================== -->

	<person id="15" employed="no">
		<plan selected="yes">
			<act type="home" x="144.48523694000005" y="-38.27978478" end_time="06:00:00" />
			<leg mode="car">
			</leg>
			<act type="home" x="144.48523694000005" y="-38.27978478" />
		</plan>

	</person>

<!-- ====================================================================== -->

	<person id="16" employed="no">
		<plan selected="yes">
			<act type="home" x="144.48573131" y="-38.272067719999995" end_time="06:00:00" />
			<leg mode="car">
			</leg>
			<act type="home" x="144.48573131" y="-38.272067719999995" />
		</plan>

	</person>

<!-- ====================================================================== -->

	<person id="17" employed="no">
		<plan selected="yes">
			<act type="home" x="144.49578328999996" y="-38.273830069999974" end_time="06:00:00" />
			<leg mode="car">
			</leg>
			<act type="home" x="144.49578328999996" y="-38.273830069999974" />
		</plan>

	</person>

<!-- ====================================================================== -->

	<person id="18" employed="no">
		<plan selected="yes">
			<act type="home" x="144.48997281000004" y="-38.26575445999998" end_time="06:00:00" />
			<leg mode="car">
			</leg>
			<act type="home" x="144.48997281000004" y="-38.26575445999998" />
		</plan>

	</person>

<!-- ====================================================================== -->

	<person id="19" employed="no">
		<plan selected="yes">
			<act type="home" x="144.49256828" y="-38.27788684000001" end_time="06:00:00" />
			<leg mode="car">
			</leg>
			<act type="home" x="144.49256828" y="-38.27788684000001" />
		</plan>

	</person>

<!-- ====================================================================== -->

	<person id="2" employed="no">
		<plan selected="yes">
			<act type="home" x="144.48122909999995" y="-38.272115740000004" end_time="06:00:00" />
			<leg mode="car">
			</leg>
			<act type="home" x="144.48122909999995" y="-38.272115740000004" />
		</plan>

	</person>

<!-- ====================================================================== -->

	<person id="20" employed="no">
		<plan selected="yes">
			<act type="home" x="144.48813110000003" y="-38.26452231000002" end_time="06:00:00" />
			<leg mode="car">
			</leg>
			<act type="home" x="144.48813110000003" y="-38.26452231000002" />
		</plan>

	</person>

<!-- ====================================================================== -->

	<person id="21" employed="no">
		<plan selected="yes">
			<act type="home" x="144.49245611000003" y="-38.283814329999984" end_time="06:00:00" />
			<leg mode="car">
			</leg>
			<act type="home" x="144.49245611000003" y="-38.283814329999984" />
		</plan>

	</person>

<!-- ====================================================================== -->

	<person id="22" employed="no">
		<plan selected="yes">
			<act type="home" x="144.49265643" y="-38.282319270000016" end_time="06:00:00" />
			<leg mode="car">
			</leg>
			<act type="home" x="144.49265643" y="-38.282319270000016" />
		</plan>

	</person>

<!-- ====================================================================== -->

	<person id="23" employed="no">
		<plan selected="yes">
			<act type="home" x="144.48380639000004" y="-38.278060779999976" end_time="06:00:00" />
			<leg mode="car">
			</leg>
			<act type="home" x="144.48380639000004" y="-38.278060779999976" />
		</plan>

	</person>

<!-- ====================================================================== -->

	<person id="24" employed="no">
		<plan selected="yes">
			<act type="home" x="144.47817080000004" y="-38.28619949" end_time="06:00:00" />
			<leg mode="car">
			</leg>
			<act type="home" x="144.47817080000004" y="-38.28619949" />
		</plan>

	</person>

<!-- ====================================================================== -->

	<person id="25" employed="no">
		<plan selected="yes">
			<act type="home" x="144.49250837" y="-38.268952679999984" end_time="06:00:00" />
			<leg mode="car">
			</leg>
			<act type="home" x="144.49250837" y="-38.268952679999984" />
		</plan>

	</person>

<!-- ====================================================================== -->

	<person id="26" employed="no">
		<plan selected="yes">
			<act type="home" x="144.48668933" y="-38.27140902999997" end_time="06:00:00" />
			<leg mode="car">
			</leg>
			<act type="home" x="144.48668933" y="-38.27140902999997" />
		</plan>

	</person>

<!-- ====================================================================== -->

	<person id="27" employed="no">
		<plan selected="yes">
			<act type="home" x="144.48750217999998" y="-38.28123470999998" end_time="06:00:00" />
			<leg mode="car">
			</leg>
			<act type="home" x="144.48750217999998" y="-38.28123470999998" />
		</plan>

	</person>

<!-- ====================================================================== -->

	<person id="28" employed="no">
		<plan selected="yes">
			<act type="home" x="144.49135478999995" y="-38.28208717000001" end_time="06:00:00" />
			<leg mode="car">
			</leg>
			<act type="home" x="144.49135478999995" y="-38.28208717000001" />
		</plan>

	</person>

<!-- ====================================================================== -->

	<person id="29" employed="no">
		<plan selected="yes">
			<act type="home" x="144.4899041" y="-38.28396574999999" end_time="06:00:00" />
			<leg mode="car">
			</leg>
			<act type="home" x="144.4899041" y="-38.28396574999999" />
		</plan>

	</person>

<!-- ====================================================================== -->

	<person id="3" employed="no">
		<plan selected="yes">
			<act type="home" x="144.49050966000004" y="-38.26911802000001" end_time="06:00:00" />
			<leg mode="car">
			</leg>
			<act type="home" x="144.49050966000004" y="-38.26911802000001" />
		</plan>

	</person>

<!-- ====================================================================== -->

	<person id="30" employed="no">
		<plan selected="yes">
			<act type="home" x="144.49637488999997" y="-38.268651320000004" end_time="06:00:00" />
			<leg mode="car">
			</leg>
			<act type="home" x="144.49637488999997" y="-38.268651320000004" />
		</plan>

	</person>

<!-- ====================================================================== -->

	<person id="31" employed="no">
		<plan selected="yes">
			<act type="home" x="144.49300473999995" y="-38.268631140000025" end_time="06:00:00" />
			<leg mode="car">
			</leg>
			<act type="home" x="144.49300473999995" y="-38.268631140000025" />
		</plan>

	</person>

<!-- ====================================================================== -->

	<person id="32" employed="no">
		<plan selected="yes">
			<act type="home" x="144.49132017" y="-38.275891160000015" end_time="06:00:00" />
			<leg mode="car">
			</leg>
			<act type="home" x="144.49132017" y="-38.275891160000015" />
		</plan>

	</person>

<!-- ====================================================================== -->

	<person id="33" employed="no">
		<plan selected="yes">
			<act type="home" x="144.48862330999998" y="-38.277999539999996" end_time="06:00:00" />
			<leg mode="car">
			</leg>
			<act type="home" x="144.48862330999998" y="-38.277999539999996" />
		</plan>

	</person>

<!-- ====================================================================== -->

	<person id="34" employed="no">
		<plan selected="yes">
			<act type="home" x="144.48624076" y="-38.26272616" end_time="06:00:00" />
			<leg mode="car">
			</leg>
			<act type="home" x="144.48624076" y="-38.26272616" />
		</plan>

	</person>

<!-- ====================================================================== -->

	<person id="35" employed="no">
		<plan selected="yes">
			<act type="home" x="144.49198938999996" y="-38.28094321999998" end_time="06:00:00" />
			<leg mode="car">
			</leg>
			<act type="home" x="144.49198938999996" y="-38.28094321999998" />
		</plan>

	</person>

<!-- ====================================================================== -->

	<person id="36" employed="no">
		<plan selected="yes">
			<act type="home" x="144.49223525000002" y="-38.28311198" end_time="06:00:00" />
			<leg mode="car">
			</leg>
			<act type="home" x="144.49223525000002" y="-38.28311198" />
		</plan>

	</person>

<!-- ====================================================================== -->

	<person id="37" employed="no">
		<plan selected="yes">
			<act type="home" x="144.49546668000005" y="-38.27649310999999" end_time="06:00:00" />
			<leg mode="car">
			</leg>
			<act type="home" x="144.49546668000005" y="-38.27649310999999" />
		</plan>

	</person>

<!-- ====================================================================== -->

	<person id="38" employed="no">
		<plan selected="yes">
			<act type="home" x="144.49581659" y="-38.26983172000001" end_time="06:00:00" />
			<leg mode="car">
			</leg>
			<act type="home" x="144.49581659" y="-38.26983172000001" />
		</plan>

	</person>

<!-- ====================================================================== -->

	<person id="39" employed="no">
		<plan selected="yes">
			<act type="home" x="144.48610395000003" y="-38.26601840000001" end_time="06:00:00" />
			<leg mode="car">
			</leg>
			<act type="home" x="144.48610395000003" y="-38.26601840000001" />
		</plan>

	</person>

<!-- ====================================================================== -->

	<person id="4" employed="no">
		<plan selected="yes">
			<act type="home" x="144.49388252000006" y="-38.27982387999998" end_time="06:00:00" />
			<leg mode="car">
			</leg>
			<act type="home" x="144.49388252000006" y="-38.27982387999998" />
		</plan>

	</person>

<!-- ====================================================================== -->

	<person id="40" employed="no">
		<plan selected="yes">
			<act type="home" x="144.49589103000005" y="-38.26966926" end_time="06:00:00" />
			<leg mode="car">
			</leg>
			<act type="home" x="144.49589103000005" y="-38.26966926" />
		</plan>

	</person>

<!-- ====================================================================== -->

	<person id="41" employed="no">
		<plan selected="yes">
			<act type="home" x="144.49298655999996" y="-38.28025912999999" end_time="06:00:00" />
			<leg mode="car">
			</leg>
			<act type="home" x="144.49298655999996" y="-38.28025912999999" />
		</plan>

	</person>

<!-- ====================================================================== -->

	<person id="42" employed="no">
		<plan selected="yes">
			<act type="home" x="144.49144260000003" y="-38.28089210000002" end_time="06:00:00" />
			<leg mode="car">
			</leg>
			<act type="home" x="144.49144260000003" y="-38.28089210000002" />
		</plan>

	</person>

<!-- ====================================================================== -->

	<person id="43" employed="no">
		<plan selected="yes">
			<act type="home" x="144.48764890999996" y="-38.27661997000001" end_time="06:00:00" />
			<leg mode="car">
			</leg>
			<act type="home" x="144.48764890999996" y="-38.27661997000001" />
		</plan>

	</person>

<!-- ====================================================================== -->

	<person id="44" employed="no">
		<plan selected="yes">
			<act type="home" x="144.49579018999998" y="-38.27789481000002" end_time="06:00:00" />
			<leg mode="car">
			</leg>
			<act type="home" x="144.49579018999998" y="-38.27789481000002" />
		</plan>

	</person>

<!-- ====================================================================== -->

	<person id="45" employed="no">
		<plan selected="yes">
			<act type="home" x="144.48618696999995" y="-38.263520289999974" end_time="06:00:00" />
			<leg mode="car">
			</leg>
			<act type="home" x="144.48618696999995" y="-38.263520289999974" />
		</plan>

	</person>

<!-- ====================================================================== -->

	<person id="46" employed="no">
		<plan selected="yes">
			<act type="home" x="144.49276655000006" y="-38.26920364" end_time="06:00:00" />
			<leg mode="car">
			</leg>
			<act type="home" x="144.49276655000006" y="-38.26920364" />
		</plan>

	</person>

<!-- ====================================================================== -->

	<person id="47" employed="no">
		<plan selected="yes">
			<act type="home" x="144.48697855" y="-38.263576090000015" end_time="06:00:00" />
			<leg mode="car">
			</leg>
			<act type="home" x="144.48697855" y="-38.263576090000015" />
		</plan>

	</person>

<!-- ====================================================================== -->

	<person id="48" employed="no">
		<plan selected="yes">
			<act type="home" x="144.49206925" y="-38.27835033000002" end_time="06:00:00" />
			<leg mode="car">
			</leg>
			<act type="home" x="144.49206925" y="-38.27835033000002" />
		</plan>

	</person>

<!-- ====================================================================== -->

	<person id="49" employed="no">
		<plan selected="yes">
			<act type="home" x="144.49125207999998" y="-38.27679939000001" end_time="06:00:00" />
			<leg mode="car">
			</leg>
			<act type="home" x="144.49125207999998" y="-38.27679939000001" />
		</plan>

	</person>

<!-- ====================================================================== -->

	<person id="5" employed="no">
		<plan selected="yes">
			<act type="home" x="144.48626117000003" y="-38.278616269999986" end_time="06:00:00" />
			<leg mode="car">
			</leg>
			<act type="home" x="144.48626117000003" y="-38.278616269999986" />
		</plan>

	</person>

<!-- ====================================================================== -->

	<person id="50" employed="no">
		<plan selected="yes">
			<act type="home" x="144.49099264999995" y="-38.28398124" end_time="06:00:00" />
			<leg mode="car">
			</leg>
			<act type="home" x="144.49099264999995" y="-38.28398124" />
		</plan>

	</person>

<!-- ====================================================================== -->

	<person id="51" employed="no">
		<plan selected="yes">
			<act type="home" x="144.48795877999999" y="-38.26805508000001" end_time="06:00:00" />
			<leg mode="car">
			</leg>
			<act type="home" x="144.48795877999999" y="-38.26805508000001" />
		</plan>

	</person>

<!-- ====================================================================== -->

	<person id="52" employed="no">
		<plan selected="yes">
			<act type="home" x="144.48499964999996" y="-38.27998783999999" end_time="06:00:00" />
			<leg mode="car">
			</leg>
			<act type="home" x="144.48499964999996" y="-38.27998783999999" />
		</plan>

	</person>

<!-- ====================================================================== -->

	<person id="53" employed="no">
		<plan selected="yes">
			<act type="home" x="144.48741997000002" y="-38.269239449999986" end_time="06:00:00" />
			<leg mode="car">
			</leg>
			<act type="home" x="144.48741997000002" y="-38.269239449999986" />
		</plan>

	</person>

<!-- ====================================================================== -->

	<person id="54" employed="no">
		<plan selected="yes">
			<act type="home" x="144.49085940999998" y="-38.276467869999976" end_time="06:00:00" />
			<leg mode="car">
			</leg>
			<act type="home" x="144.49085940999998" y="-38.276467869999976" />
		</plan>

	</person>

<!-- ====================================================================== -->

	<person id="55" employed="no">
		<plan selected="yes">
			<act type="home" x="144.49154832" y="-38.27654992999999" end_time="06:00:00" />
			<leg mode="car">
			</leg>
			<act type="home" x="144.49154832" y="-38.27654992999999" />
		</plan>

	</person>

<!-- ====================================================================== -->

	<person id="56" employed="no">
		<plan selected="yes">
			<act type="home" x="144.49139804000004" y="-38.277715150000006" end_time="06:00:00" />
			<leg mode="car">
			</leg>
			<act type="home" x="144.49139804000004" y="-38.277715150000006" />
		</plan>

	</person>

<!-- ====================================================================== -->

	<person id="57" employed="no">
		<plan selected="yes">
			<act type="home" x="144.49192217999996" y="-38.28129716000001" end_time="06:00:00" />
			<leg mode="car">
			</leg>
			<act type="home" x="144.49192217999996" y="-38.28129716000001" />
		</plan>

	</person>

<!-- ====================================================================== -->

	<person id="58" employed="no">
		<plan selected="yes">
			<act type="home" x="144.49559969999996" y="-38.27599070000002" end_time="06:00:00" />
			<leg mode="car">
			</leg>
			<act type="home" x="144.49559969999996" y="-38.27599070000002" />
		</plan>

	</person>

<!-- ====================================================================== -->

	<person id="59" employed="no">
		<plan selected="yes">
			<act type="home" x="144.49344191" y="-38.27674381999998" end_time="06:00:00" />
			<leg mode="car">
			</leg>
			<act type="home" x="144.49344191" y="-38.27674381999998" />
		</plan>

	</person>

<!-- ====================================================================== -->

	<person id="6" employed="no">
		<plan selected="yes">
			<act type="home" x="144.49287225" y="-38.27625882000001" end_time="06:00:00" />
			<leg mode="car">
			</leg>
			<act type="home" x="144.49287225" y="-38.27625882000001" />
		</plan>

	</person>

<!-- ====================================================================== -->

	<person id="60" employed="no">
		<plan selected="yes">
			<act type="home" x="144.49115870000003" y="-38.26623024999998" end_time="06:00:00" />
			<leg mode="car">
			</leg>
			<act type="home" x="144.49115870000003" y="-38.26623024999998" />
		</plan>

	</person>

<!-- ====================================================================== -->

	<person id="61" employed="no">
		<plan selected="yes">
			<act type="home" x="144.48706731000004" y="-38.275617839999995" end_time="06:00:00" />
			<leg mode="car">
			</leg>
			<act type="home" x="144.48706731000004" y="-38.275617839999995" />
		</plan>

	</person>

<!-- ====================================================================== -->

	<person id="62" employed="no">
		<plan selected="yes">
			<act type="home" x="144.49232508" y="-38.27697817000001" end_time="06:00:00" />
			<leg mode="car">
			</leg>
			<act type="home" x="144.49232508" y="-38.27697817000001" />
		</plan>

	</person>

<!-- ====================================================================== -->

	<person id="63" employed="no">
		<plan selected="yes">
			<act type="home" x="144.48710939" y="-38.27764051999998" end_time="06:00:00" />
			<leg mode="car">
			</leg>
			<act type="home" x="144.48710939" y="-38.27764051999998" />
		</plan>

	</person>

<!-- ====================================================================== -->

	<person id="64" employed="no">
		<plan selected="yes">
			<act type="home" x="144.48622085" y="-38.26534622999998" end_time="06:00:00" />
			<leg mode="car">
			</leg>
			<act type="home" x="144.48622085" y="-38.26534622999998" />
		</plan>

	</person>

<!-- ====================================================================== -->

	<person id="65" employed="no">
		<plan selected="yes">
			<act type="home" x="144.49839739000004" y="-38.26740202000002" end_time="06:00:00" />
			<leg mode="car">
			</leg>
			<act type="home" x="144.49839739000004" y="-38.26740202000002" />
		</plan>

	</person>

<!-- ====================================================================== -->

	<person id="66" employed="no">
		<plan selected="yes">
			<act type="home" x="144.48582379000004" y="-38.27078855000002" end_time="06:00:00" />
			<leg mode="car">
			</leg>
			<act type="home" x="144.48582379000004" y="-38.27078855000002" />
		</plan>

	</person>

<!-- ====================================================================== -->

	<person id="67" employed="no">
		<plan selected="yes">
			<act type="home" x="144.48855845000003" y="-38.28293488000003" end_time="06:00:00" />
			<leg mode="car">
			</leg>
			<act type="home" x="144.48855845000003" y="-38.28293488000003" />
		</plan>

	</person>

<!-- ====================================================================== -->

	<person id="68" employed="no">
		<plan selected="yes">
			<act type="home" x="144.49183109" y="-38.27956820000003" end_time="06:00:00" />
			<leg mode="car">
			</leg>
			<act type="home" x="144.49183109" y="-38.27956820000003" />
		</plan>

	</person>

<!-- ====================================================================== -->

	<person id="69" employed="no">
		<plan selected="yes">
			<act type="home" x="144.48976741" y="-38.27571188000002" end_time="06:00:00" />
			<leg mode="car">
			</leg>
			<act type="home" x="144.48976741" y="-38.27571188000002" />
		</plan>

	</person>

<!-- ====================================================================== -->

	<person id="7" employed="no">
		<plan selected="yes">
			<act type="home" x="144.49359728000002" y="-38.277825010000015" end_time="06:00:00" />
			<leg mode="car">
			</leg>
			<act type="home" x="144.49359728000002" y="-38.277825010000015" />
		</plan>

	</person>

<!-- ====================================================================== -->

	<person id="70" employed="no">
		<plan selected="yes">
			<act type="home" x="144.49035043000003" y="-38.26596620999999" end_time="06:00:00" />
			<leg mode="car">
			</leg>
			<act type="home" x="144.49035043000003" y="-38.26596620999999" />
		</plan>

	</person>

<!-- ====================================================================== -->

	<person id="71" employed="no">
		<plan selected="yes">
			<act type="home" x="144.48947480000004" y="-38.27539371" end_time="06:00:00" />
			<leg mode="car">
			</leg>
			<act type="home" x="144.48947480000004" y="-38.27539371" />
		</plan>

	</person>

<!-- ====================================================================== -->

	<person id="72" employed="no">
		<plan selected="yes">
			<act type="home" x="144.48632353999994" y="-38.272247489999984" end_time="06:00:00" />
			<leg mode="car">
			</leg>
			<act type="home" x="144.48632353999994" y="-38.272247489999984" />
		</plan>

	</person>

<!-- ====================================================================== -->

	<person id="73" employed="no">
		<plan selected="yes">
			<act type="home" x="144.4838578" y="-38.27917458000002" end_time="06:00:00" />
			<leg mode="car">
			</leg>
			<act type="home" x="144.4838578" y="-38.27917458000002" />
		</plan>

	</person>

<!-- ====================================================================== -->

	<person id="74" employed="no">
		<plan selected="yes">
			<act type="home" x="144.48913539" y="-38.276265790000025" end_time="06:00:00" />
			<leg mode="car">
			</leg>
			<act type="home" x="144.48913539" y="-38.276265790000025" />
		</plan>

	</person>

<!-- ====================================================================== -->

	<person id="75" employed="no">
		<plan selected="yes">
			<act type="home" x="144.49431089999996" y="-38.27754325000001" end_time="06:00:00" />
			<leg mode="car">
			</leg>
			<act type="home" x="144.49431089999996" y="-38.27754325000001" />
		</plan>

	</person>

<!-- ====================================================================== -->

	<person id="76" employed="no">
		<plan selected="yes">
			<act type="home" x="144.48661030000005" y="-38.26442558000002" end_time="06:00:00" />
			<leg mode="car">
			</leg>
			<act type="home" x="144.48661030000005" y="-38.26442558000002" />
		</plan>

	</person>

<!-- ====================================================================== -->

	<person id="77" employed="no">
		<plan selected="yes">
			<act type="home" x="144.48812838000003" y="-38.280910189999986" end_time="06:00:00" />
			<leg mode="car">
			</leg>
			<act type="home" x="144.48812838000003" y="-38.280910189999986" />
		</plan>

	</person>

<!-- ====================================================================== -->

	<person id="78" employed="no">
		<plan selected="yes">
			<act type="home" x="144.48834376000002" y="-38.28378199000002" end_time="06:00:00" />
			<leg mode="car">
			</leg>
			<act type="home" x="144.48834376000002" y="-38.28378199000002" />
		</plan>

	</person>

<!-- ====================================================================== -->

	<person id="79" employed="no">
		<plan selected="yes">
			<act type="home" x="144.49120345999995" y="-38.27975053" end_time="06:00:00" />
			<leg mode="car">
			</leg>
			<act type="home" x="144.49120345999995" y="-38.27975053" />
		</plan>

	</person>

<!-- ====================================================================== -->

	<person id="8" employed="no">
		<plan selected="yes">
			<act type="home" x="144.49118166000005" y="-38.26492760000002" end_time="06:00:00" />
			<leg mode="car">
			</leg>
			<act type="home" x="144.49118166000005" y="-38.26492760000002" />
		</plan>

	</person>

<!-- ====================================================================== -->

	<person id="80" employed="no">
		<plan selected="yes">
			<act type="home" x="144.48679102999995" y="-38.27839351" end_time="06:00:00" />
			<leg mode="car">
			</leg>
			<act type="home" x="144.48679102999995" y="-38.27839351" />
		</plan>

	</person>

<!-- ====================================================================== -->

	<person id="81" employed="no">
		<plan selected="yes">
			<act type="home" x="144.48896892000005" y="-38.27968267" end_time="06:00:00" />
			<leg mode="car">
			</leg>
			<act type="home" x="144.48896892000005" y="-38.27968267" />
		</plan>

	</person>

<!-- ====================================================================== -->

	<person id="82" employed="no">
		<plan selected="yes">
			<act type="home" x="144.49125207999998" y="-38.27679939000001" end_time="06:00:00" />
			<leg mode="car">
			</leg>
			<act type="home" x="144.49125207999998" y="-38.27679939000001" />
		</plan>

	</person>

<!-- ====================================================================== -->

	<person id="83" employed="no">
		<plan selected="yes">
			<act type="home" x="144.49224006999998" y="-38.27961563000002" end_time="06:00:00" />
			<leg mode="car">
			</leg>
			<act type="home" x="144.49224006999998" y="-38.27961563000002" />
		</plan>

	</person>

<!-- ====================================================================== -->

	<person id="84" employed="no">
		<plan selected="yes">
			<act type="home" x="144.49021542000003" y="-38.27711593999999" end_time="06:00:00" />
			<leg mode="car">
			</leg>
			<act type="home" x="144.49021542000003" y="-38.27711593999999" />
		</plan>

	</person>

<!-- ====================================================================== -->

	<person id="85" employed="no">
		<plan selected="yes">