<?xml version="1.0" encoding="utf-8"?>
<!DOCTYPE population SYSTEM "http://www.matsim.org/files/dtd/population_v6.dtd">

<population>



<!-- ====================================================================== -->

	<person id="0">
		<plan selected="yes">
			<activity type="home" x="238549.76655846767" y="5907173.962825477" end_time="06:00:00" >
			</activity>
			<leg mode="car">
			</leg>
			<activity type="home" x="238549.76655846767" y="5907173.962825477" >
			</activity>
		</plan>

	</person>

<!-- ====================================================================== -->

	<person id="1">
		<plan selected="yes">
			<activity type="home" x="238641.3600710856" y="5906970.113851691" end_time="06:00:00" >
			</activity>
			<leg mode="car">
			</leg>
			<activity type="home" x="238641.3600710856" y="5906970.113851691" >
			</activity>
		</plan>

	</person>

<!-- ====================================================================== -->

	<person id="10">
		<plan selected="yes">
			<activity type="home" x="238787.5524153024" y="5906744.049182895" end_time="06:00:00" >
			</activity>
			<leg mode="car">
			</leg>
			<activity type="home" x="238787.5524153024" y="5906744.049182895" >
			</activity>
		</plan>

	</person>

<!-- ====================================================================== -->

	<person id="100">
		<plan selected="yes">
			<activity type="home" x="238264.12545325846" y="5906599.60689496" end_time="06:00:00" >
			</activity>
			<leg mode="car">
			</leg>
			<activity type="home" x="238264.12545325846" y="5906599.60689496" >
			</activity>
		</plan>

	</person>

<!-- ====================================================================== -->

	<person id="101">
		<plan selected="yes">
			<activity type="home" x="239030.92651092247" y="5906999.553633835" end_time="06:00:00" >
			</activity>
			<leg mode="car">
			</leg>
			<activity type="home" x="239030.92651092247" y="5906999.553633835" >
			</activity>
		</plan>

	</person>

<!-- ====================================================================== -->

	<person id="102">
		<plan selected="yes">
			<activity type="home" x="238229.7744261043" y="5906737.3438091865" end_time="06:00:00" >
			</activity>
			<leg mode="car">
			</leg>
			<activity type="home" x="238229.7744261043" y="5906737.3438091865" >
			</activity>
		</plan>

	</person>

<!-- ====================================================================== -->

	<person id="103">
		<plan selected="yes">
			<activity type="home" x="239046.27089535294" y="5906968.277343811" end_time="06:00:00" >
			</activity>
			<leg mode="car">
			</leg>
			<activity type="home" x="239046.27089535294" y="5906968.277343811" >
			</activity>
		</plan>

	</person>

<!-- ====================================================================== -->

	<person id="104">
		<plan selected="yes">
			<activity type="home" x="238519.37313196404" y="5906859.266167062" end_time="06:00:00" >
			</activity>
			<leg mode="car">
			</leg>
			<activity type="home" x="238519.37313196404" y="5906859.266167062" >
			</activity>
		</plan>

	</person>

<!-- ====================================================================== -->

	<person id="105">
		<plan selected="yes">
			<activity type="home" x="238709.78491728604" y="5906763.608400116" end_time="06:00:00" >
			</activity>
			<leg mode="car">
			</leg>
			<activity type="home" x="238709.78491728604" y="5906763.608400116" >
			</activity>
		</plan>

	</person>

<!-- ====================================================================== -->

	<person id="106">
		<plan selected="yes">
			<activity type="home" x="238410.91181448952" y="5907130.367288064" end_time="06:00:00" >
			</activity>
			<leg mode="car">
			</leg>
			<activity type="home" x="238410.91181448952" y="5907130.367288064" >
			</activity>
		</plan>

	</person>

<!-- ====================================================================== -->

	<person id="107">
		<plan selected="yes">
			<activity type="home" x="238906.70603794127" y="5906689.727976962" end_time="06:00:00" >
			</activity>
			<leg mode="car">
			</leg>
			<activity type="home" x="238906.70603794127" y="5906689.727976962" >
			</activity>
		</plan>

	</person>

<!-- ====================================================================== -->

	<person id="108">
		<plan selected="yes">
			<activity type="home" x="238759.19203076095" y="5907107.01062671" end_time="06:00:00" >
			</activity>
			<leg mode="car">
			</leg>
			<activity type="home" x="238759.19203076095" y="5907107.01062671" >
			</activity>
		</plan>

	</person>

<!-- ====================================================================== -->

	<person id="109">
		<plan selected="yes">
			<activity type="home" x="238840.1229040158" y="5907015.060116389" end_time="06:00:00" >
			</activity>
			<leg mode="car">
			</leg>
			<activity type="home" x="238840.1229040158" y="5907015.060116389" >
			</activity>
		</plan>

	</person>

<!-- ====================================================================== -->

	<person id="11">
		<plan selected="yes">
			<activity type="home" x="238378.60295159134" y="5907169.427335508" end_time="06:00:00" >
			</activity>
			<leg mode="car">
			</leg>
			<activity type="home" x="238378.60295159134" y="5907169.427335508" >
			</activity>
		</plan>

	</person>

<!-- ====================================================================== -->

	<person id="110">
		<plan selected="yes">
			<activity type="home" x="238346.23448534962" y="5907187.447107268" end_time="06:00:00" >
			</activity>
			<leg mode="car">
			</leg>
			<activity type="home" x="238346.23448534962" y="5907187.447107268" >
			</activity>
		</plan>

	</person>

<!-- ====================================================================== -->

	<person id="111">
		<plan selected="yes">
			<activity type="home" x="238332.32743416648" y="5907060.180974756" end_time="06:00:00" >
			</activity>
			<leg mode="car">
			</leg>
			<activity type="home" x="238332.32743416648" y="5907060.180974756" >
			</activity>
		</plan>

	</person>

<!-- ====================================================================== -->

	<person id="112">
		<plan selected="yes">
			<activity type="home" x="238680.61249216608" y="5907173.313308584" end_time="06:00:00" >
			</activity>
			<leg mode="car">
			</leg>
			<activity type="home" x="238680.61249216608" y="5907173.313308584" >
			</activity>
		</plan>

	</person>

<!-- ====================================================================== -->

	<person id="113">
		<plan selected="yes">
			<activity type="home" x="238576.33311380638" y="5907313.873961658" end_time="06:00:00" >
			</activity>
			<leg mode="car">
			</leg>
			<activity type="home" x="238576.33311380638" y="5907313.873961658" >
			</activity>
		</plan>

	</person>

<!-- ====================================================================== -->

	<person id="114">
		<plan selected="yes">
			<activity type="home" x="238393.7543424591" y="5906749.374461651" end_time="06:00:00" >
			</activity>
			<leg mode="car">
			</leg>
			<activity type="home" x="238393.7543424591" y="5906749.374461651" >
			</activity>
		</plan>

	</person>

<!-- ====================================================================== -->

	<person id="115">
		<plan selected="yes">
			<activity type="home" x="238940.53673228854" y="5907347.852769918" end_time="06:00:00" >
			</activity>
			<leg mode="car">
			</leg>
			<activity type="home" x="238940.53673228854" y="5907347.852769918" >
			</activity>
		</plan>

	</person>

<!-- ====================================================================== -->

	<person id="116">
		<plan selected="yes">
			<activity type="home" x="238440.86051521162" y="5906690.846586931" end_time="06:00:00" >
			</activity>
			<leg mode="car">
			</leg>
			<activity type="home" x="238440.86051521162" y="5906690.846586931" >
			</activity>
		</plan>

	</person>

<!-- ====================================================================== -->

	<person id="117">
		<plan selected="yes">
			<activity type="home" x="238494.17365866085" y="5906599.694170071" end_time="06:00:00" >
			</activity>
			<leg mode="car">
			</leg>
			<activity type="home" x="238494.17365866085" y="5906599.694170071" >
			</activity>
		</plan>

	</person>

<!-- ====================================================================== -->

	<person id="118">
		<plan selected="yes">
			<activity type="home" x="238622.0018334114" y="5906692.455099813" end_time="06:00:00" >
			</activity>
			<leg mode="car">
			</leg>
			<activity type="home" x="238622.0018334114" y="5906692.455099813" >
			</activity>
		</plan>

	</person>

<!-- ====================================================================== -->

	<person id="119">
		<plan selected="yes">
			<activity type="home" x="238960.07725238564" y="5907191.539196694" end_time="06:00:00" >
			</activity>
			<leg mode="car">
			</leg>
			<activity type="home" x="238960.07725238564" y="5907191.539196694" >
			</activity>
		</plan>

	</person>

<!-- ====================================================================== -->

	<person id="12">
		<plan selected="yes">
			<activity type="home" x="238325.32916037267" y="5906846.802397802" end_time="06:00:00" >
			</activity>
			<leg mode="car">
			</leg>
			<activity type="home" x="238325.32916037267" y="5906846.802397802" >
			</activity>
		</plan>

	</person>

<!-- ====================================================================== -->

	<person id="120">
		<plan selected="yes">
			<activity type="home" x="238430.84828360163" y="5906657.64598886" end_time="06:00:00" >
			</activity>
			<leg mode="car">
			</leg>
			<activity type="home" x="238430.84828360163" y="5906657.64598886" >
			</activity>
		</plan>

	</person>

<!-- ====================================================================== -->

	<person id="121">
		<plan selected="yes">
			<activity type="home" x="238973.25402242798" y="5906915.573694311" end_time="06:00:00" >
			</activity>
			<leg mode="car">
			</leg>
			<activity type="home" x="238973.25402242798" y="5906915.573694311" >
			</activity>
		</plan>

	</person>

<!-- ====================================================================== -->

	<person id="122">
		<plan selected="yes">
			<activity type="home" x="238892.16383571728" y="5906615.134450857" end_time="06:00:00" >
			</activity>
			<leg mode="car">
			</leg>
			<activity type="home" x="238892.16383571728" y="5906615.134450857" >
			</activity>
		</plan>

	</person>

<!-- ====================================================================== -->

	<person id="123">
		<plan selected="yes">
			<activity type="home" x="238803.78793161572" y="5906913.700473226" end_time="06:00:00" >
			</activity>
			<leg mode="car">
			</leg>
			<activity type="home" x="238803.78793161572" y="5906913.700473226" >
			</activity>
		</plan>

	</person>

<!-- ====================================================================== -->

	<person id="124">
		<plan selected="yes">
			<activity type="home" x="238814.4077317173" y="5906763.057235863" end_time="06:00:00" >
			</activity>
			<leg mode="car">
			</leg>
			<activity type="home" x="238814.4077317173" y="5906763.057235863" >
			</activity>
		</plan>

	</person>

<!-- ====================================================================== -->

	<person id="125">
		<plan selected="yes">
			<activity type="home" x="238718.3337446464" y="5907285.139326442" end_time="06:00:00" >
			</activity>
			<leg mode="car">
			</leg>
			<activity type="home" x="238718.3337446464" y="5907285.139326442" >
			</activity>
		</plan>

	</person>

<!-- ====================================================================== -->

	<person id="126">
		<plan selected="yes">
			<activity type="home" x="238146.81870579085" y="5906951.172614974" end_time="06:00:00" >
			</activity>
			<leg mode="car">
			</leg>
			<activity type="home" x="238146.81870579085" y="5906951.172614974" >
			</activity>
		</plan>

	</person>

<!-- ====================================================================== -->

	<person id="127">
		<plan selected="yes">
			<activity type="home" x="238682.63607134225" y="5907246.5743827" end_time="06:00:00" >
			</activity>
			<leg mode="car">
			</leg>
			<activity type="home" x="238682.63607134225" y="5907246.5743827" >
			</activity>
		</plan>

	</person>

<!-- ====================================================================== -->

	<person id="128">
		<plan selected="yes">
			<activity type="home" x="238125.6267478695" y="5906633.456660838" end_time="06:00:00" >
			</activity>
			<leg mode="car">
			</leg>
			<activity type="home" x="238125.6267478695" y="5906633.456660838" >
			</activity>
		</plan>

	</person>

<!-- ====================================================================== -->

	<person id="129">
		<plan selected="yes">
			<activity type="home" x="238284.92024892653" y="5907039.542254341" end_time="06:00:00" >
			</activity>
			<leg mode="car">
			</leg>
			<activity type="home" x="238284.92024892653" y="5907039.542254341" >
			</activity>
		</plan>

	</person>

<!-- ====================================================================== -->

	<person id="13">
		<plan selected="yes">
			<activity type="home" x="238827.43819999025" y="5906635.993071695" end_time="06:00:00" >
			</activity>
			<leg mode="car">
			</leg>
			<activity type="home" x="238827.43819999025" y="5906635.993071695" >
			</activity>
		</plan>

	</person>

<!-- ====================================================================== -->

	<person id="130">
		<plan selected="yes">
			<activity type="home" x="238650.72267655795" y="5906983.225068671" end_time="06:00:00" >
			</activity>
			<leg mode="car">
			</leg>
			<activity type="home" x="238650.72267655795" y="5906983.225068671" >
			</activity>
		</plan>

	</person>

<!-- ====================================================================== -->

	<person id="131">
		<plan selected="yes">
			<activity type="home" x="238640.97796630324" y="5906939.655630716" end_time="06:00:00" >
			</activity>
			<leg mode="car">
			</leg>
			<activity type="home" x="238640.97796630324" y="5906939.655630716" >
			</activity>
		</plan>

	</person>

<!-- ====================================================================== -->

	<person id="132">
		<plan selected="yes">
			<activity type="home" x="238429.67682451292" y="5907341.833448582" end_time="06:00:00" >
			</activity>
			<leg mode="car">
			</leg>
			<activity type="home" x="238429.67682451292" y="5907341.833448582" >
			</activity>
		</plan>

	</person>

<!-- ====================================================================== -->

	<person id="133">
		<plan selected="yes">
			<activity type="home" x="238221.8835077914" y="5907011.203316561" end_time="06:00:00" >
			</activity>
			<leg mode="car">
			</leg>
			<activity type="home" x="238221.8835077914" y="5907011.203316561" >
			</activity>
		</plan>

	</person>

<!-- ====================================================================== -->

	<person id="134">
		<plan selected="yes">
			<activity type="home" x="238167.27649858544" y="5906602.954167522" end_time="06:00:00" >
			</activity>
			<leg mode="car">
			</leg>
			<activity type="home" x="238167.27649858544" y="5906602.954167522" >
			</activity>
		</plan>

	</person>

<!-- ====================================================================== -->

	<person id="135">
		<plan selected="yes">
			<activity type="home" x="238956.12417415416" y="5907286.318685561" end_time="06:00:00" >
			</activity>
			<leg mode="car">
			</leg>
			<activity type="home" x="238956.12417415416" y="5907286.318685561" >
			</activity>
		</plan>

	</person>

<!-- ====================================================================== -->

	<person id="136">
		<plan selected="yes">
			<activity type="home" x="238974.8009752675" y="5906831.150288497" end_time="06:00:00" >
			</activity>
			<leg mode="car">
			</leg>
			<activity type="home" x="238974.8009752675" y="5906831.150288497" >
			</activity>
		</plan>

	</person>

<!-- ====================================================================== -->

	<person id="137">
		<plan selected="yes">
			<activity type="home" x="239043.15414714138" y="5906751.824546874" end_time="06:00:00" >
			</activity>
			<leg mode="car">
			</leg>
			<activity type="home" x="239043.15414714138" y="5906751.824546874" >
			</activity>
		</plan>

	</person>

<!-- ====================================================================== -->

	<person id="138">
		<plan selected="yes">
			<activity type="home" x="238812.61005887575" y="5907021.917643717" end_time="06:00:00" >
			</activity>
			<leg mode="car">
			</leg>
			<activity type="home" x="238812.61005887575" y="5907021.917643717" >
			</activity>
		</plan>

	</person>

<!-- ====================================================================== -->

	<person id="139">
		<plan selected="yes">
			<activity type="home" x="238610.6267652462" y="5906701.872865806" end_time="06:00:00" >
			</activity>
			<leg mode="car">
			</leg>
			<activity type="home" x="238610.6267652462" y="5906701.872865806" >
			</activity>
		</plan>

	</person>

<!-- ====================================================================== -->

	<person id="14">
		<plan selected="yes">
			<activity type="home" x="238839.05842974305" y="5906918.687243283" end_time="06:00:00" >
			</activity>
			<leg mode="car">
			</leg>
			<activity type="home" x="238839.05842974305" y="5906918.687243283" >
			</activity>
		</plan>

	</person>

<!-- ====================================================================== -->

	<person id="140">
		<plan selected="yes">
			<activity type="home" x="238512.3818813371" y="5906734.449509071" end_time="06:00:00" >
			</activity>
			<leg mode="car">
			</leg>
			<activity type="home" x="238512.3818813371" y="5906734.449509071" >
			</activity>
		</plan>

	</person>

<!-- ====================================================================== -->

	<person id="141">
		<plan selected="yes">
			<activity type="home" x="238742.3300920433" y="5907330.554262943" end_time="06:00:00" >
			</activity>
			<leg mode="car">
			</leg>
			<activity type="home" x="238742.3300920433" y="5907330.554262943" >
			</activity>
		</plan>

	</person>

<!-- ====================================================================== -->

	<person id="142">
		<plan selected="yes">
			<activity type="home" x="238206.22236536277" y="5907088.188141939" end_time="06:00:00" >
			</activity>
			<leg mode="car">
			</leg>
			<activity type="home" x="238206.22236536277" y="5907088.188141939" >
			</activity>
		</plan>

	</person>

<!-- ====================================================================== -->

	<person id="143">
		<plan selected="yes">
			<activity type="home" x="238697.36869257124" y="5907239.949231431" end_time="06:00:00" >
			</activity>
			<leg mode="car">
			</leg>
			<activity type="home" x="238697.36869257124" y="5907239.949231431" >
			</activity>
		</plan>

	</person>

<!-- ====================================================================== -->

	<person id="144">
		<plan selected="yes">
			<activity type="home" x="239007.02654322996" y="5907247.621020286" end_time="06:00:00" >
			</activity>
			<leg mode="car">
			</leg>
			<activity type="home" x="239007.02654322996" y="5907247.621020286" >
			</activity>
		</plan>

	</person>

<!-- ====================================================================== -->

	<person id="145">
		<plan selected="yes">
			<activity type="home" x="238347.47015862406" y="5906678.6068810355" end_time="06:00:00" >
			</activity>
			<leg mode="car">
			</leg>
			<activity type="home" x="238347.47015862406" y="5906678.6068810355" >
			</activity>
		</plan>

	</person>

<!-- ====================================================================== -->

	<person id="146">
		<plan selected="yes">
			<activity type="home" x="238699.85435799733" y="5907406.950525239" end_time="06:00:00" >
			</activity>
			<leg mode="car">
			</leg>
			<activity type="home" x="238699.85435799733" y="5907406.950525239" >
			</activity>
		</plan>

	</person>

<!-- ====================================================================== -->

	<person id="147">
		<plan selected="yes">
			<activity type="home" x="238610.23758054647" y="5906646.288621381" end_time="06:00:00" >
			</activity>
			<leg mode="car">
			</leg>
			<activity type="home" x="238610.23758054647" y="5906646.288621381" >
			</activity>
		</plan>

	</person>

<!-- ====================================================================== -->

	<person id="148">
		<plan selected="yes">
			<activity type="home" x="238530.78506016813" y="5907123.311009764" end_time="06:00:00" >
			</activity>
			<leg mode="car">
			</leg>
			<activity type="home" x="238530.78506016813" y="5907123.311009764" >
			</activity>
		</plan>

	</person>

<!-- ====================================================================== -->

	<person id="149">
		<plan selected="yes">
			<activity type="home" x="238558.36869474666" y="5907398.419700779" end_time="06:00:00" >
			</activity>
			<leg mode="car">
			</leg>
			<activity type="home" x="238558.36869474666" y="5907398.419700779" >
			</activity>
		</plan>

	</person>

<!-- ====================================================================== -->

	<person id="15">
		<plan selected="yes">
			<activity type="home" x="238171.21698805992" y="5906749.914237022" end_time="06:00:00" >
			</activity>
			<leg mode="car">
			</leg>
			<activity type="home" x="238171.21698805992" y="5906749.914237022" >
			</activity>
		</plan>

	</person>

<!-- ====================================================================== -->

	<person id="150">
		<plan selected="yes">
			<activity type="home" x="238895.58412338185" y="5906899.884127666" end_time="06:00:00" >
			</activity>
			<leg mode="car">
			</leg>
			<activity type="home" x="238895.58412338185" y="5906899.884127666" >
			</activity>
		</plan>

	</person>

<!-- ====================================================================== -->

	<person id="151">
		<plan selected="yes">
			<activity type="home" x="238920.2034076853" y="5907370.049568234" end_time="06:00:00" >
			</activity>
			<leg mode="car">
			</leg>
			<activity type="home" x="238920.2034076853" y="5907370.049568234" >
			</activity>
		</plan>

	</person>

<!-- ====================================================================== -->

	<person id="152">
		<plan selected="yes">
			<activity type="home" x="238446.24234910714" y="5906580.766426902" end_time="06:00:00" >
			</activity>
			<leg mode="car">
			</leg>
			<activity type="home" x="238446.24234910714" y="5906580.766426902" >
			</activity>
		</plan>

	</person>

<!-- ====================================================================== -->

	<person id="153">
		<plan selected="yes">
			<activity type="home" x="238432.90523829503" y="5907009.647579217" end_time="06:00:00" >
			</activity>
			<leg mode="car">
			</leg>
			<activity type="home" x="238432.90523829503" y="5907009.647579217" >
			</activity>
		</plan>

	</person>

<!-- ====================================================================== -->

	<person id="154">
		<plan selected="yes">
			<activity type="home" x="239010.97793918522" y="5906902.991451373" end_time="06:00:00" >
			</activity>
			<leg mode="car">
			</leg>
			<activity type="home" x="239010.97793918522" y="5906902.991451373" >
			</activity>
		</plan>

	</person>

<!-- ====================================================================== -->

	<person id="155">
		<plan selected="yes">
			<activity type="home" x="238320.26652406057" y="5906598.486196629" end_time="06:00:00" >
			</activity>
			<leg mode="car">
			</leg>
			<activity type="home" x="238320.26652406057" y="5906598.486196629" >
			</activity>
		</plan>

	</person>

<!-- ====================================================================== -->

	<person id="156">
		<plan selected="yes">
			<activity type="home" x="238123.80487672446" y="5907403.26445549" end_time="06:00:00" >
			</activity>
			<leg mode="car">
			</leg>
			<activity type="home" x="238123.80487672446" y="5907403.26445549" >
			</activity>
		</plan>

	</person>

<!-- ====================================================================== -->

	<person id="157">
		<plan selected="yes">
			<activity type="home" x="238406.71848543893" y="5906715.102531611" end_time="06:00:00" >
			</activity>
			<leg mode="car">
			</leg>
			<activity type="home" x="238406.71848543893" y="5906715.102531611" >
			</activity>
		</plan>

	</person>

<!-- ====================================================================== -->

	<person id="158">
		<plan selected="yes">
			<activity type="home" x="238851.08223236553" y="5907023.193015944" end_time="06:00:00" >
			</activity>
			<leg mode="car">
			</leg>
			<activity type="home" x="238851.08223236553" y="5907023.193015944" >
			</activity>
		</plan>

	</person>

<!-- ====================================================================== -->

	<person id="159">
		<plan selected="yes">
			<activity type="home" x="239008.41133637368" y="5906610.383072195" end_time="06:00:00" >
			</activity>
			<leg mode="car">
			</leg>
			<activity type="home" x="239008.41133637368" y="5906610.383072195" >
			</activity>
		</plan>

	</person>

<!-- ====================================================================== -->

	<person id="16">
		<plan selected="yes">
			<activity type="home" x="238383.85180421695" y="5906620.245622633" end_time="06:00:00" >
			</activity>
			<leg mode="car">
			</leg>
			<activity type="home" x="238383.85180421695" y="5906620.245622633" >
			</activity>
		</plan>

	</person>

<!-- ====================================================================== -->

	<person id="160">
		<plan selected="yes">
			<activity type="home" x="239012.70951259093" y="5906774.458589036" end_time="06:00:00" >
			</activity>
			<leg mode="car">
			</leg>
			<activity type="home" x="239012.70951259093" y="5906774.458589036" >
			</activity>
		</plan>

	</person>

<!-- ====================================================================== -->

	<person id="161">
		<plan selected="yes">
			<activity type="home" x="238432.21166045067" y="5906586.499967856" end_time="06:00:00" >
			</activity>
			<leg mode="car">
			</leg>
			<activity type="home" x="238432.21166045067" y="5906586.499967856" >
			</activity>
		</plan>

	</person>

<!-- ====================================================================== -->

	<person id="162">
		<plan selected="yes">
			<activity type="home" x="238825.87086504203" y="5906609.885906493" end_time="06:00:00" >
			</activity>
			<leg mode="car">
			</leg>
			<activity type="home" x="238825.87086504203" y="5906609.885906493" >
			</activity>
		</plan>

	</person>

<!-- ====================================================================== -->

	<person id="163">
		<plan selected="yes">
			<activity type="home" x="238975.02860804187" y="5906612.682353917" end_time="06:00:00" >
			</activity>
			<leg mode="car">
			</leg>
			<activity type="home" x="238975.02860804187" y="5906612.682353917" >
			</activity>
		</plan>

	</person>

<!-- ====================================================================== -->

	<person id="164">
		<plan selected="yes">
			<activity type="home" x="238350.81637356058" y="5906895.97376168" end_time="06:00:00" >
			</activity>
			<leg mode="car">
			</leg>
			<activity type="home" x="238350.81637356058" y="5906895.97376168" >
			</activity>
		</plan>

	</person>

<!-- ====================================================================== -->

	<person id="165">
		<plan selected="yes">
			<activity type="home" x="238683.61411983642" y="5907088.094006181" end_time="06:00:00" >
			</activity>
			<leg mode="car">
			</leg>
			<activity type="home" x="238683.61411983642" y="5907088.094006181" >
			</activity>
		</plan>

	</person>

<!-- ====================================================================== -->

	<person id="166">
		<plan selected="yes">
			<activity type="home" x="238260.36001268675" y="5907252.956989965" end_time="06:00:00" >
			</activity>
			<leg mode="car">
			</leg>
			<activity type="home" x="238260.36001268675" y="5907252.956989965" >
			</activity>
		</plan>

	</person>

<!-- ====================================================================== -->

	<person id="167">
		<plan selected="yes">
			<activity type="home" x="238235.47319567396" y="5906651.446449667" end_time="06:00:00" >
			</activity>
			<leg mode="car">
			</leg>
			<activity type="home" x="238235.47319567396" y="5906651.446449667" >
			</activity>
		</plan>

	</person>

<!-- ====================================================================== -->

	<person id="168">
		<plan selected="yes">
			<activity type="home" x="238556.55618683557" y="5906679.972093633" end_time="06:00:00" >
			</activity>
			<leg mode="car">
			</leg>
			<activity type="home" x="238556.55618683557" y="5906679.972093633" >
			</activity>
		</plan>

	</person>

<!-- ====================================================================== -->

	<person id="169">
		<plan selected="yes">
			<activity type="home" x="238776.58220038732" y="5906805.917812073" end_time="06:00:00" >
			</activity>
			<leg mode="car">
			</leg>
			<activity type="home" x="238776.58220038732" y="5906805.917812073" >
			</activity>
		</plan>

	</person>

<!-- ====================================================================== -->

	<person id="17">
		<plan selected="yes">
			<activity type="home" x="238249.24466942862" y="5906763.054642286" end_time="06:00:00" >
			</activity>
			<leg mode="car">
			</leg>
			<activity type="home" x="238249.24466942862" y="5906763.054642286" >
			</activity>
		</plan>

	</person>

<!-- ====================================================================== -->

	<person id="170">
		<plan selected="yes">
			<activity type="home" x="238150.7931909163" y="5907366.618625573" end_time="06:00:00" >
			</activity>