<?xml version="1.0" encoding="utf-8"?>
<!DOCTYPE population SYSTEM "http://www.matsim.org/files/dtd/population_v5.dtd">

<population>
<!-- ====================================================================== -->
<!--
<person id="1" employed="no">
	<plan selected="yes">
		<act type="home" x="239180.0" y="5901743.0" end_time="06:00:00" />
		<leg mode="car">
		</leg>
		<act type="home" x="239180.0" y="5901743.0" />
	</plan>
</person>
-->
<!-- ====================================================================== -->
</population>
