<?xml version="1.0" encoding="UTF-8"?>
<networkChangeEvents xmlns="http://www.matsim.org/files/dtd" xmlns:xsi="http://www.w3.org/2001/XMLSchema-instance" xsi:schemaLocation="http://www.matsim.org/files/dtd http://www.matsim.org/files/dtd/networkChangeEvents.xsd">

<!-- Event to scale the max speed on roads at the start of the simulation -->
<networkChangeEvent startTime= "00:00:00" >
  <!-- Dummy link. DO NOT REMOVE. XML must have at least one valid link. -->
  <link refId= "dummy-linkid-that-should-never-match"/>

  <!-- All links on which speed is to be scaled should go below -->
${maxSpeedLinks}

  <!-- the percentage to scale the speed by -->
  <freespeed type= "scaleFactor" value= "${maxSpeed}"/>

</networkChangeEvent>

<!-- Dummy event. DO NOT REMOVE. File must have at least one valid event. -->
<networkChangeEvent startTime= "00:00:00" >
  <link refId= "dummy-linkid-that-should-never-match"/>
  <freespeed type= "absolute" value= "5.5"/><!-- In m/s: divide km/h by 3.6 -->
  <!--<flowCapacity type= "scaleFactor" value= "0.25"/>-->
  </networkChangeEvent>

</networkChangeEvents>


