<?xml version="1.0" encoding="utf-8"?>
<!DOCTYPE population SYSTEM "http://www.matsim.org/files/dtd/population_v5.dtd">

<population>

<!-- ====================================================================== -->

	<person id="1" employed="no">
		<plan selected="yes">
			<act type="home" x="239034.90777891254" y="5901495.672019738" end_time="06:00:00" />
			<leg mode="car">
			</leg>
			<act type="home" x="239034.90777891254" y="5901495.672019738" />
		</plan>

	</person>

<!-- ====================================================================== -->

	<person id="10" employed="no">
		<plan selected="yes">
			<act type="home" x="239482.42823087002" y="5902012.312011034" end_time="06:00:00" />
			<leg mode="car">
			</leg>
			<act type="home" x="239482.42823087002" y="5902012.312011034" />
		</plan>

	</person>

<!-- ====================================================================== -->

	<person id="100" employed="no">
		<plan selected="yes">
			<act type="home" x="238651.30035446424" y="5901927.5049373675" end_time="06:00:00" />
			<leg mode="car">
			</leg>
			<act type="home" x="238651.30035446424" y="5901927.5049373675" />
		</plan>

	</person>

<!-- ====================================================================== -->

	<person id="101" employed="no">
		<plan selected="yes">
			<act type="home" x="238794.22247575267" y="5902297.057038632" end_time="06:00:00" />
			<leg mode="car">
			</leg>
			<act type="home" x="238794.22247575267" y="5902297.057038632" />
		</plan>

	</person>

<!-- ====================================================================== -->

	<person id="102" employed="no">
		<plan selected="yes">
			<act type="home" x="238389.5978670712" y="5902130.657433513" end_time="06:00:00" />
			<leg mode="car">
			</leg>
			<act type="home" x="238389.5978670712" y="5902130.657433513" />
		</plan>

	</person>

<!-- ====================================================================== -->

	<person id="103" employed="no">
		<plan selected="yes">
			<act type="home" x="238963.3166265834" y="5902654.032293237" end_time="06:00:00" />
			<leg mode="car">
			</leg>
			<act type="home" x="238963.3166265834" y="5902654.032293237" />
		</plan>

	</person>

<!-- ====================================================================== -->

	<person id="104" employed="no">
		<plan selected="yes">
			<act type="home" x="238142.37630748746" y="5901494.962775561" end_time="06:00:00" />
			<leg mode="car">
			</leg>
			<act type="home" x="238142.37630748746" y="5901494.962775561" />
		</plan>

	</person>

<!-- ====================================================================== -->

	<person id="105" employed="no">
		<plan selected="yes">
			<act type="home" x="238524.79062285653" y="5902270.703545782" end_time="06:00:00" />
			<leg mode="car">
			</leg>
			<act type="home" x="238524.79062285653" y="5902270.703545782" />
		</plan>

	</person>

<!-- ====================================================================== -->

	<person id="106" employed="no">
		<plan selected="yes">
			<act type="home" x="239485.3168210278" y="5902240.766889413" end_time="06:00:00" />
			<leg mode="car">
			</leg>
			<act type="home" x="239485.3168210278" y="5902240.766889413" />
		</plan>

	</person>

<!-- ====================================================================== -->

	<person id="107" employed="no">
		<plan selected="yes">
			<act type="home" x="239416.74438472217" y="5902715.5409970535" end_time="06:00:00" />
			<leg mode="car">
			</leg>
			<act type="home" x="239416.74438472217" y="5902715.5409970535" />
		</plan>

	</person>

<!-- ====================================================================== -->

	<person id="108" employed="no">
		<plan selected="yes">
			<act type="home" x="239162.89384953014" y="5902298.798733998" end_time="06:00:00" />
			<leg mode="car">
			</leg>
			<act type="home" x="239162.89384953014" y="5902298.798733998" />
		</plan>

	</person>

<!-- ====================================================================== -->

	<person id="109" employed="no">
		<plan selected="yes">
			<act type="home" x="239236.8563685473" y="5901887.877882006" end_time="06:00:00" />
			<leg mode="car">
			</leg>
			<act type="home" x="239236.8563685473" y="5901887.877882006" />
		</plan>

	</person>

<!-- ====================================================================== -->

	<person id="11" employed="no">
		<plan selected="yes">
			<act type="home" x="239461.77658562444" y="5901480.122120069" end_time="06:00:00" />
			<leg mode="car">
			</leg>
			<act type="home" x="239461.77658562444" y="5901480.122120069" />
		</plan>

	</person>

<!-- ====================================================================== -->

	<person id="110" employed="no">
		<plan selected="yes">
			<act type="home" x="238761.25448822597" y="5901526.215679254" end_time="06:00:00" />
			<leg mode="car">
			</leg>
			<act type="home" x="238761.25448822597" y="5901526.215679254" />
		</plan>

	</person>

<!-- ====================================================================== -->

	<person id="111" employed="no">
		<plan selected="yes">
			<act type="home" x="239266.76802430087" y="5901793.32820269" end_time="06:00:00" />
			<leg mode="car">
			</leg>
			<act type="home" x="239266.76802430087" y="5901793.32820269" />
		</plan>

	</person>

<!-- ====================================================================== -->

	<person id="112" employed="no">
		<plan selected="yes">
			<act type="home" x="238343.5163822226" y="5902247.0440245485" end_time="06:00:00" />
			<leg mode="car">
			</leg>
			<act type="home" x="238343.5163822226" y="5902247.0440245485" />
		</plan>

	</person>

<!-- ====================================================================== -->

	<person id="113" employed="no">
		<plan selected="yes">
			<act type="home" x="238219.57896101818" y="5901475.987164653" end_time="06:00:00" />
			<leg mode="car">
			</leg>
			<act type="home" x="238219.57896101818" y="5901475.987164653" />
		</plan>

	</person>

<!-- ====================================================================== -->

	<person id="114" employed="no">
		<plan selected="yes">
			<act type="home" x="238510.78702384973" y="5902460.948858751" end_time="06:00:00" />
			<leg mode="car">
			</leg>
			<act type="home" x="238510.78702384973" y="5902460.948858751" />
		</plan>

	</person>

<!-- ====================================================================== -->

	<person id="115" employed="no">
		<plan selected="yes">
			<act type="home" x="238731.79867085244" y="5901823.055660495" end_time="06:00:00" />
			<leg mode="car">
			</leg>
			<act type="home" x="238731.79867085244" y="5901823.055660495" />
		</plan>

	</person>

<!-- ====================================================================== -->

	<person id="116" employed="no">
		<plan selected="yes">
			<act type="home" x="238380.87442358318" y="5901778.475056539" end_time="06:00:00" />
			<leg mode="car">
			</leg>
			<act type="home" x="238380.87442358318" y="5901778.475056539" />
		</plan>

	</person>

<!-- ====================================================================== -->

	<person id="117" employed="no">
		<plan selected="yes">
			<act type="home" x="239011.41853070908" y="5902494.659356096" end_time="06:00:00" />
			<leg mode="car">
			</leg>
			<act type="home" x="239011.41853070908" y="5902494.659356096" />
		</plan>

	</person>

<!-- ====================================================================== -->

	<person id="118" employed="no">
		<plan selected="yes">
			<act type="home" x="238250.5044648321" y="5901780.604007658" end_time="06:00:00" />
			<leg mode="car">
			</leg>
			<act type="home" x="238250.5044648321" y="5901780.604007658" />
		</plan>

	</person>

<!-- ====================================================================== -->

	<person id="119" employed="no">
		<plan selected="yes">
			<act type="home" x="239248.04814873985" y="5902202.871682397" end_time="06:00:00" />
			<leg mode="car">
			</leg>
			<act type="home" x="239248.04814873985" y="5902202.871682397" />
		</plan>

	</person>

<!-- ====================================================================== -->

	<person id="12" employed="no">
		<plan selected="yes">
			<act type="home" x="239311.13905743542" y="5902425.363649987" end_time="06:00:00" />
			<leg mode="car">
			</leg>
			<act type="home" x="239311.13905743542" y="5902425.363649987" />
		</plan>

	</person>

<!-- ====================================================================== -->

	<person id="120" employed="no">
		<plan selected="yes">
			<act type="home" x="237996.08998385083" y="5901734.735267294" end_time="06:00:00" />
			<leg mode="car">
			</leg>
			<act type="home" x="237996.08998385083" y="5901734.735267294" />
		</plan>

	</person>

<!-- ====================================================================== -->

	<person id="121" employed="no">
		<plan selected="yes">
			<act type="home" x="238914.35178795547" y="5901563.747148614" end_time="06:00:00" />
			<leg mode="car">
			</leg>
			<act type="home" x="238914.35178795547" y="5901563.747148614" />
		</plan>

	</person>

<!-- ====================================================================== -->

	<person id="122" employed="no">
		<plan selected="yes">
			<act type="home" x="238083.06637628452" y="5901752.267815043" end_time="06:00:00" />
			<leg mode="car">
			</leg>
			<act type="home" x="238083.06637628452" y="5901752.267815043" />
		</plan>

	</person>

<!-- ====================================================================== -->

	<person id="123" employed="no">
		<plan selected="yes">
			<act type="home" x="237991.7601781293" y="5902031.344046072" end_time="06:00:00" />
			<leg mode="car">
			</leg>
			<act type="home" x="237991.7601781293" y="5902031.344046072" />
		</plan>

	</person>

<!-- ====================================================================== -->

	<person id="124" employed="no">
		<plan selected="yes">
			<act type="home" x="238419.90004739742" y="5902548.173184279" end_time="06:00:00" />
			<leg mode="car">
			</leg>
			<act type="home" x="238419.90004739742" y="5902548.173184279" />
		</plan>

	</person>

<!-- ====================================================================== -->

	<person id="125" employed="no">
		<plan selected="yes">
			<act type="home" x="239064.87846755396" y="5901834.487746764" end_time="06:00:00" />
			<leg mode="car">
			</leg>
			<act type="home" x="239064.87846755396" y="5901834.487746764" />
		</plan>

	</person>

<!-- ====================================================================== -->

	<person id="126" employed="no">
		<plan selected="yes">
			<act type="home" x="239001.00712580292" y="5902372.56511176" end_time="06:00:00" />
			<leg mode="car">
			</leg>
			<act type="home" x="239001.00712580292" y="5902372.56511176" />
		</plan>

	</person>

<!-- ====================================================================== -->

	<person id="127" employed="no">
		<plan selected="yes">
			<act type="home" x="239122.77052475963" y="5902165.9273786545" end_time="06:00:00" />
			<leg mode="car">
			</leg>
			<act type="home" x="239122.77052475963" y="5902165.9273786545" />
		</plan>

	</person>

<!-- ====================================================================== -->

	<person id="128" employed="no">
		<plan selected="yes">
			<act type="home" x="239077.81103817423" y="5901853.910693919" end_time="06:00:00" />
			<leg mode="car">
			</leg>
			<act type="home" x="239077.81103817423" y="5901853.910693919" />
		</plan>

	</person>

<!-- ====================================================================== -->

	<person id="129" employed="no">
		<plan selected="yes">
			<act type="home" x="239332.4856781426" y="5902126.265041742" end_time="06:00:00" />
			<leg mode="car">
			</leg>
			<act type="home" x="239332.4856781426" y="5902126.265041742" />
		</plan>

	</person>

<!-- ====================================================================== -->

	<person id="13" employed="no">
		<plan selected="yes">
			<act type="home" x="238484.05118805848" y="5902707.470615442" end_time="06:00:00" />
			<leg mode="car">
			</leg>
			<act type="home" x="238484.05118805848" y="5902707.470615442" />
		</plan>

	</person>

<!-- ====================================================================== -->

	<person id="130" employed="no">
		<plan selected="yes">
			<act type="home" x="238142.3475828724" y="5902217.074595232" end_time="06:00:00" />
			<leg mode="car">
			</leg>
			<act type="home" x="238142.3475828724" y="5902217.074595232" />
		</plan>

	</person>

<!-- ====================================================================== -->

	<person id="131" employed="no">
		<plan selected="yes">
			<act type="home" x="238046.19967636358" y="5902243.627262742" end_time="06:00:00" />
			<leg mode="car">
			</leg>
			<act type="home" x="238046.19967636358" y="5902243.627262742" />
		</plan>

	</person>

<!-- ====================================================================== -->

	<person id="132" employed="no">
		<plan selected="yes">
			<act type="home" x="239231.7166609735" y="5902343.288055188" end_time="06:00:00" />
			<leg mode="car">
			</leg>
			<act type="home" x="239231.7166609735" y="5902343.288055188" />
		</plan>

	</person>

<!-- ====================================================================== -->

	<person id="133" employed="no">
		<plan selected="yes">
			<act type="home" x="239230.9029229372" y="5901899.320454084" end_time="06:00:00" />
			<leg mode="car">
			</leg>
			<act type="home" x="239230.9029229372" y="5901899.320454084" />
		</plan>

	</person>

<!-- ====================================================================== -->

	<person id="134" employed="no">
		<plan selected="yes">
			<act type="home" x="238020.39519316514" y="5902484.125264895" end_time="06:00:00" />
			<leg mode="car">
			</leg>
			<act type="home" x="238020.39519316514" y="5902484.125264895" />
		</plan>

	</person>

<!-- ====================================================================== -->

	<person id="135" employed="no">
		<plan selected="yes">
			<act type="home" x="238398.7362232066" y="5902514.1550549455" end_time="06:00:00" />
			<leg mode="car">
			</leg>
			<act type="home" x="238398.7362232066" y="5902514.1550549455" />
		</plan>

	</person>

<!-- ====================================================================== -->

	<person id="136" employed="no">
		<plan selected="yes">
			<act type="home" x="238850.94477071986" y="5901654.668292822" end_time="06:00:00" />
			<leg mode="car">
			</leg>
			<act type="home" x="238850.94477071986" y="5901654.668292822" />
		</plan>

	</person>

<!-- ====================================================================== -->

	<person id="137" employed="no">
		<plan selected="yes">
			<act type="home" x="239248.086724845" y="5902325.410029332" end_time="06:00:00" />
			<leg mode="car">
			</leg>
			<act type="home" x="239248.086724845" y="5902325.410029332" />
		</plan>

	</person>

<!-- ====================================================================== -->

	<person id="138" employed="no">
		<plan selected="yes">
			<act type="home" x="238899.24356101977" y="5901592.742390933" end_time="06:00:00" />
			<leg mode="car">
			</leg>
			<act type="home" x="238899.24356101977" y="5901592.742390933" />
		</plan>

	</person>

<!-- ====================================================================== -->

	<person id="139" employed="no">
		<plan selected="yes">
			<act type="home" x="239104.74453412948" y="5902206.622812258" end_time="06:00:00" />
			<leg mode="car">
			</leg>
			<act type="home" x="239104.74453412948" y="5902206.622812258" />
		</plan>

	</person>

<!-- ====================================================================== -->

	<person id="14" employed="no">
		<plan selected="yes">
			<act type="home" x="239300.3643072725" y="5901609.027831329" end_time="06:00:00" />
			<leg mode="car">
			</leg>
			<act type="home" x="239300.3643072725" y="5901609.027831329" />
		</plan>

	</person>

<!-- ====================================================================== -->

	<person id="140" employed="no">
		<plan selected="yes">
			<act type="home" x="238165.55723724893" y="5901431.278257232" end_time="06:00:00" />
			<leg mode="car">
			</leg>
			<act type="home" x="238165.55723724893" y="5901431.278257232" />
		</plan>

	</person>

<!-- ====================================================================== -->

	<person id="141" employed="no">
		<plan selected="yes">
			<act type="home" x="238236.8464490217" y="5902531.774024132" end_time="06:00:00" />
			<leg mode="car">
			</leg>
			<act type="home" x="238236.8464490217" y="5902531.774024132" />
		</plan>

	</person>

<!-- ====================================================================== -->

	<person id="142" employed="no">
		<plan selected="yes">
			<act type="home" x="239105.22163059955" y="5901558.573452673" end_time="06:00:00" />
			<leg mode="car">
			</leg>
			<act type="home" x="239105.22163059955" y="5901558.573452673" />
		</plan>

	</person>

<!-- ====================================================================== -->

	<person id="143" employed="no">
		<plan selected="yes">
			<act type="home" x="238848.93552474008" y="5902227.705362388" end_time="06:00:00" />
			<leg mode="car">
			</leg>
			<act type="home" x="238848.93552474008" y="5902227.705362388" />
		</plan>

	</person>

<!-- ====================================================================== -->

	<person id="144" employed="no">
		<plan selected="yes">
			<act type="home" x="238238.66327448137" y="5902553.212406282" end_time="06:00:00" />
			<leg mode="car">
			</leg>
			<act type="home" x="238238.66327448137" y="5902553.212406282" />
		</plan>

	</person>

<!-- ====================================================================== -->

	<person id="145" employed="no">
		<plan selected="yes">
			<act type="home" x="238575.65811591665" y="5902065.927383005" end_time="06:00:00" />
			<leg mode="car">
			</leg>
			<act type="home" x="238575.65811591665" y="5902065.927383005" />
		</plan>

	</person>

<!-- ====================================================================== -->

	<person id="146" employed="no">
		<plan selected="yes">
			<act type="home" x="237989.2256810848" y="5901877.480574285" end_time="06:00:00" />
			<leg mode="car">
			</leg>
			<act type="home" x="237989.2256810848" y="5901877.480574285" />
		</plan>

	</person>

<!-- ====================================================================== -->

	<person id="147" employed="no">
		<plan selected="yes">
			<act type="home" x="238981.84346716476" y="5901859.951816495" end_time="06:00:00" />
			<leg mode="car">
			</leg>
			<act type="home" x="238981.84346716476" y="5901859.951816495" />
		</plan>

	</person>

<!-- ====================================================================== -->

	<person id="148" employed="no">
		<plan selected="yes">
			<act type="home" x="239538.62642842293" y="5902465.479857224" end_time="06:00:00" />
			<leg mode="car">
			</leg>
			<act type="home" x="239538.62642842293" y="5902465.479857224" />
		</plan>

	</person>

<!-- ====================================================================== -->

	<person id="149" employed="no">
		<plan selected="yes">
			<act type="home" x="239085.9326250962" y="5902499.535196461" end_time="06:00:00" />
			<leg mode="car">
			</leg>
			<act type="home" x="239085.9326250962" y="5902499.535196461" />
		</plan>

	</person>

<!-- ====================================================================== -->

	<person id="15" employed="no">
		<plan selected="yes">
			<act type="home" x="238975.2254564081" y="5902455.256827205" end_time="06:00:00" />
			<leg mode="car">
			</leg>
			<act type="home" x="238975.2254564081" y="5902455.256827205" />
		</plan>

	</person>

<!-- ====================================================================== -->

	<person id="150" employed="no">
		<plan selected="yes">
			<act type="home" x="239138.80007099567" y="5901456.507691666" end_time="06:00:00" />
			<leg mode="car">
			</leg>
			<act type="home" x="239138.80007099567" y="5901456.507691666" />
		</plan>

	</person>

<!-- ====================================================================== -->

	<person id="151" employed="no">
		<plan selected="yes">
			<act type="home" x="238646.06213194225" y="5902047.030323631" end_time="06:00:00" />
			<leg mode="car">
			</leg>
			<act type="home" x="238646.06213194225" y="5902047.030323631" />
		</plan>

	</person>

<!-- ====================================================================== -->

	<person id="152" employed="no">
		<plan selected="yes">
			<act type="home" x="238375.98150241023" y="5901972.445982576" end_time="06:00:00" />
			<leg mode="car">
			</leg>
			<act type="home" x="238375.98150241023" y="5901972.445982576" />
		</plan>

	</person>

<!-- ====================================================================== -->

	<person id="153" employed="no">
		<plan selected="yes">
			<act type="home" x="238127.04244126385" y="5902115.819627576" end_time="06:00:00" />
			<leg mode="car">
			</leg>
			<act type="home" x="238127.04244126385" y="5902115.819627576" />
		</plan>

	</person>

<!-- ====================================================================== -->

	<person id="154" employed="no">
		<plan selected="yes">
			<act type="home" x="239491.1053022046" y="5901424.97052423" end_time="06:00:00" />
			<leg mode="car">
			</leg>
			<act type="home" x="239491.1053022046" y="5901424.97052423" />
		</plan>

	</person>

<!-- ====================================================================== -->

	<person id="155" employed="no">
		<plan selected="yes">
			<act type="home" x="238570.68009096544" y="5901513.975905237" end_time="06:00:00" />
			<leg mode="car">
			</leg>
			<act type="home" x="238570.68009096544" y="5901513.975905237" />
		</plan>

	</person>

<!-- ====================================================================== -->

	<person id="156" employed="no">
		<plan selected="yes">
			<act type="home" x="238785.47428374962" y="5902530.303864702" end_time="06:00:00" />
			<leg mode="car">
			</leg>
			<act type="home" x="238785.47428374962" y="5902530.303864702" />
		</plan>

	</person>

<!-- ====================================================================== -->

	<person id="157" employed="no">
		<plan selected="yes">
			<act type="home" x="239215.09288738013" y="5901911.293839894" end_time="06:00:00" />
			<leg mode="car">
			</leg>
			<act type="home" x="239215.09288738013" y="5901911.293839894" />
		</plan>

	</person>

<!-- ====================================================================== -->

	<person id="158" employed="no">
		<plan selected="yes">
			<act type="home" x="239024.7992983809" y="5902684.601493655" end_time="06:00:00" />
			<leg mode="car">
			</leg>
			<act type="home" x="239024.7992983809" y="5902684.601493655" />
		</plan>

	</person>

<!-- ====================================================================== -->

	<person id="159" employed="no">
		<plan selected="yes">
			<act type="home" x="238258.07353257833" y="5901729.838159177" end_time="06:00:00" />
			<leg mode="car">
			</leg>
			<act type="home" x="238258.07353257833" y="5901729.838159177" />
		</plan>

	</person>

<!-- ====================================================================== -->

	<person id="16" employed="no">
		<plan selected="yes">
			<act type="home" x="239374.04070568318" y="5902681.056895358" end_time="06:00:00" />
			<leg mode="car">
			</leg>
			<act type="home" x="239374.04070568318" y="5902681.056895358" />
		</plan>

	</person>

<!-- ====================================================================== -->

	<person id="160" employed="no">
		<plan selected="yes">
			<act type="home" x="239342.9565139775" y="5902092.048942645" end_time="06:00:00" />
			<leg mode="car">
			</leg>
			<act type="home" x="239342.9565139775" y="5902092.048942645" />
		</plan>

	</person>

<!-- ====================================================================== -->

	<person id="161" employed="no">
		<plan selected="yes">
			<act type="home" x="239563.6948116098" y="5902489.697921382" end_time="06:00:00" />
			<leg mode="car">
			</leg>
			<act type="home" x="239563.6948116098" y="5902489.697921382" />
		</plan>

	</person>

<!-- ====================================================================== -->

	<person id="162" employed="no">
		<plan selected="yes">
			<act type="home" x="239378.36209271633" y="5902661.579448602" end_time="06:00:00" />
			<leg mode="car">
			</leg>
			<act type="home" x="239378.36209271633" y="5902661.579448602" />
		</plan>

	</person>

<!-- ====================================================================== -->

	<person id="163" employed="no">
		<plan selected="yes">
			<act type="home" x="238890.59008024278" y="5902171.9408891015" end_time="06:00:00" />
			<leg mode="car">
			</leg>
			<act type="home" x="238890.59008024278" y="5902171.9408891015" />
		</plan>

	</person>

<!-- ====================================================================== -->

	<person id="164" employed="no">
		<plan selected="yes">
			<act type="home" x="238040.96937911102" y="5902690.3482225295" end_time="06:00:00" />
			<leg mode="car">
			</leg>
			<act type="home" x="238040.96937911102" y="5902690.3482225295" />
		</plan>

	</person>

<!-- ====================================================================== -->

	<person id="165" employed="no">
		<plan selected="yes">
			<act type="home" x="239211.69721117505" y="5902553.584602935" end_time="06:00:00" />
			<leg mode="car">
			</leg>
			<act type="home" x="239211.69721117505" y="5902553.584602935" />
		</plan>

	</person>

<!-- ====================================================================== -->

	<person id="166" employed="no">
		<plan selected="yes">
			<act type="home" x="238881.50686754484" y="5902222.437965111" end_time="06:00:00" />
			<leg mode="car">
			</leg>
			<act type="home" x="238881.50686754484" y="5902222.437965111" />
		</plan>

	</person>

<!-- ====================================================================== -->

	<person id="167" employed="no">
		<plan selected="yes">
			<act type="home" x="239153.2263773791" y="5902583.273140428" end_time="06:00:00" />
			<leg mode="car">
			</leg>
			<act type="home" x="239153.2263773791" y="5902583.273140428" />
		</plan>

	</person>

<!-- ====================================================================== -->

	<person id="168" employed="no">
		<plan selected="yes">
			<act type="home" x="238608.20568709236" y="5901554.286625167" end_time="06:00:00" />
			<leg mode="car">
			</leg>
			<act type="home" x="238608.20568709236" y="5901554.286625167" />
		</plan>

	</person>

<!-- ====================================================================== -->

	<person id="169" employed="no">
		<plan selected="yes">
			<act type="home" x="238776.41727269112" y="5902515.716375194" end_time="06:00:00" />
			<leg mode="car">
			</leg>
			<act type="home" x="238776.41727269112" y="5902515.716375194" />
		</plan>

	</person>

<!-- ====================================================================== -->

	<person id="17" employed="no">
		<plan selected="yes">
			<act type="home" x="239461.92765310183" y="5901962.883206152" end_time="06:00:00" />
			<leg mode="car">
			</leg>
			<act type="home" x="239461.92765310183" y="5901962.883206152" />
		</plan>

	</person>

<!-- ====================================================================== -->

	<person id="170" employed="no">
		<plan selected="yes">
			<act type="home" x="239314.14229778014" y="5901904.151169598" end_time="06:00:00" />
			<leg mode="car">
			</leg>
			<act type="home" x="239314.14229778014" y="5901904.151169598" />
		</plan>

	</person>

<!-- ====================================================================== -->

	<person id="171" employed="no">
		<plan selected="yes">
			<act type="home" x="238771.77596612548" y="5902575.815511873" end_time="06:00:00" />
			<leg mode="car">
			</leg>
			<act type="home" x="238771.77596612548" y="5902575.815511873" />
		</plan>

	</person>

<!-- ====================================================================== -->

	<person id="172" employed="no">
		<plan selected="yes">
			<act type="home" x="239598.0864171089" y="5901521.423454903" end_time="06:00:00" />
			<leg mode="car">
			</leg>
			<act type="home" x="239598.0864171089" y="5901521.423454903" />
		</plan>

	</person>

<!-- ====================================================================== -->

	<person id="173" employed="no">
		<plan selected="yes">
			<act type="home" x="239601.86753293092" y="5902727.925532293" end_time="06:00:00" />
			<leg mode="car">
			</leg>
			<act type="home" x="239601.86753293092" y="5902727.925532293" />
		</plan>

	</person>

<!-- ====================================================================== -->

	<person id="174" employed="no">
		<plan selected="yes">
			<act type="home" x="238096.29526777111" y="5901841.002824961" end_time="06:00:00" />
			<leg mode="car">
			</leg>
			<act type="home" x="238096.29526777111" y="5901841.002824961" />
		</plan>

	</person>

<!-- ====================================================================== -->

	<person id="175" employed="no">
		<plan selected="yes">
			<act type="home" x="239434.4946832301" y="5902272.994666549" end_time="06:00:00" />
			<leg mode="car">
			</leg>
			<act type="home" x="239434.4946832301" y="5902272.994666549" />
		</plan>

	</person>

<!-- ====================================================================== -->

	<person id="176" employed="no">
		<plan selected="yes">
			<act type="home" x="238246.53831916497" y="5902279.304183085" end_time="06:00:00" />
			<leg mode="car">
			</leg>
			<act type="home" x="238246.53831916497" y="5902279.304183085" />
		</plan>

	</person>
