<?xml version="1.0" encoding="utf-8"?>
<!DOCTYPE population SYSTEM "http://www.matsim.org/files/dtd/population_v6.dtd">

<population>



<!-- ====================================================================== -->

	<person id="0">
		<plan selected="yes">
			<activity type="home" x="252118.88127526935" y="5894289.412795321" end_time="06:00:00" >
			</activity>
			<leg mode="car">
			</leg>
			<activity type="home" x="252118.88127526935" y="5894289.412795321" >
			</activity>
		</plan>

	</person>

<!-- ====================================================================== -->

	<person id="1">
		<plan selected="yes">
			<activity type="home" x="252145.46020315224" y="5894173.617112414" end_time="06:00:00" >
			</activity>
			<leg mode="car">
			</leg>
			<activity type="home" x="252145.46020315224" y="5894173.617112414" >
			</activity>
		</plan>

	</person>

<!-- ====================================================================== -->

	<person id="10">
		<plan selected="yes">
			<activity type="home" x="252159.70948840454" y="5894381.039537378" end_time="06:00:00" >
			</activity>
			<leg mode="car">
			</leg>
			<activity type="home" x="252159.70948840454" y="5894381.039537378" >
			</activity>
		</plan>

	</person>

<!-- ====================================================================== -->

	<person id="100">
		<plan selected="yes">
			<activity type="home" x="252117.05989244365" y="5894090.438772795" end_time="06:00:00" >
			</activity>
			<leg mode="car">
			</leg>
			<activity type="home" x="252117.05989244365" y="5894090.438772795" >
			</activity>
		</plan>

	</person>

<!-- ====================================================================== -->

	<person id="101">
		<plan selected="yes">
			<activity type="home" x="252172.9210598573" y="5894381.630642153" end_time="06:00:00" >
			</activity>
			<leg mode="car">
			</leg>
			<activity type="home" x="252172.9210598573" y="5894381.630642153" >
			</activity>
		</plan>

	</person>

<!-- ====================================================================== -->

	<person id="102">
		<plan selected="yes">
			<activity type="home" x="252133.52656697028" y="5894341.555744359" end_time="06:00:00" >
			</activity>
			<leg mode="car">
			</leg>
			<activity type="home" x="252133.52656697028" y="5894341.555744359" >
			</activity>
		</plan>

	</person>

<!-- ====================================================================== -->

	<person id="103">
		<plan selected="yes">
			<activity type="home" x="252130.21832263283" y="5894220.468806417" end_time="06:00:00" >
			</activity>
			<leg mode="car">
			</leg>
			<activity type="home" x="252130.21832263283" y="5894220.468806417" >
			</activity>
		</plan>

	</person>

<!-- ====================================================================== -->

	<person id="104">
		<plan selected="yes">
			<activity type="home" x="252135.30799313777" y="5894196.662161164" end_time="06:00:00" >
			</activity>
			<leg mode="car">
			</leg>
			<activity type="home" x="252135.30799313777" y="5894196.662161164" >
			</activity>
		</plan>

	</person>

<!-- ====================================================================== -->

	<person id="105">
		<plan selected="yes">
			<activity type="home" x="252176.58593350276" y="5894388.608997249" end_time="06:00:00" >
			</activity>
			<leg mode="car">
			</leg>
			<activity type="home" x="252176.58593350276" y="5894388.608997249" >
			</activity>
		</plan>

	</person>

<!-- ====================================================================== -->

	<person id="106">
		<plan selected="yes">
			<activity type="home" x="252163.27789489806" y="5894315.037504095" end_time="06:00:00" >
			</activity>
			<leg mode="car">
			</leg>
			<activity type="home" x="252163.27789489806" y="5894315.037504095" >
			</activity>
		</plan>

	</person>

<!-- ====================================================================== -->

	<person id="107">
		<plan selected="yes">
			<activity type="home" x="252155.79190301665" y="5894367.950533142" end_time="06:00:00" >
			</activity>
			<leg mode="car">
			</leg>
			<activity type="home" x="252155.79190301665" y="5894367.950533142" >
			</activity>
		</plan>

	</person>

<!-- ====================================================================== -->

	<person id="108">
		<plan selected="yes">
			<activity type="home" x="252128.94912067376" y="5894156.737475547" end_time="06:00:00" >
			</activity>
			<leg mode="car">
			</leg>
			<activity type="home" x="252128.94912067376" y="5894156.737475547" >
			</activity>
		</plan>

	</person>

<!-- ====================================================================== -->

	<person id="109">
		<plan selected="yes">
			<activity type="home" x="252187.52974105882" y="5894083.7330925595" end_time="06:00:00" >
			</activity>
			<leg mode="car">
			</leg>
			<activity type="home" x="252187.52974105882" y="5894083.7330925595" >
			</activity>
		</plan>

	</person>

<!-- ====================================================================== -->

	<person id="11">
		<plan selected="yes">
			<activity type="home" x="252117.15497352948" y="5894175.55430251" end_time="06:00:00" >
			</activity>
			<leg mode="car">
			</leg>
			<activity type="home" x="252117.15497352948" y="5894175.55430251" >
			</activity>
		</plan>

	</person>

<!-- ====================================================================== -->

	<person id="110">
		<plan selected="yes">
			<activity type="home" x="252164.13482551338" y="5894123.073939762" end_time="06:00:00" >
			</activity>
			<leg mode="car">
			</leg>
			<activity type="home" x="252164.13482551338" y="5894123.073939762" >
			</activity>
		</plan>

	</person>

<!-- ====================================================================== -->

	<person id="111">
		<plan selected="yes">
			<activity type="home" x="252191.47786575355" y="5894387.190071603" end_time="06:00:00" >
			</activity>
			<leg mode="car">
			</leg>
			<activity type="home" x="252191.47786575355" y="5894387.190071603" >
			</activity>
		</plan>

	</person>

<!-- ====================================================================== -->

	<person id="112">
		<plan selected="yes">
			<activity type="home" x="252123.8874721415" y="5894106.512618811" end_time="06:00:00" >
			</activity>
			<leg mode="car">
			</leg>
			<activity type="home" x="252123.8874721415" y="5894106.512618811" >
			</activity>
		</plan>

	</person>

<!-- ====================================================================== -->

	<person id="113">
		<plan selected="yes">
			<activity type="home" x="252192.3308532438" y="5894290.671020999" end_time="06:00:00" >
			</activity>
			<leg mode="car">
			</leg>
			<activity type="home" x="252192.3308532438" y="5894290.671020999" >
			</activity>
		</plan>

	</person>

<!-- ====================================================================== -->

	<person id="114">
		<plan selected="yes">
			<activity type="home" x="252192.5302615471" y="5894165.772358401" end_time="06:00:00" >
			</activity>
			<leg mode="car">
			</leg>
			<activity type="home" x="252192.5302615471" y="5894165.772358401" >
			</activity>
		</plan>

	</person>

<!-- ====================================================================== -->

	<person id="115">
		<plan selected="yes">
			<activity type="home" x="252174.0070878918" y="5894379.667745205" end_time="06:00:00" >
			</activity>
			<leg mode="car">
			</leg>
			<activity type="home" x="252174.0070878918" y="5894379.667745205" >
			</activity>
		</plan>

	</person>

<!-- ====================================================================== -->

	<person id="116">
		<plan selected="yes">
			<activity type="home" x="252126.89323080058" y="5894282.89834348" end_time="06:00:00" >
			</activity>
			<leg mode="car">
			</leg>
			<activity type="home" x="252126.89323080058" y="5894282.89834348" >
			</activity>
		</plan>

	</person>

<!-- ====================================================================== -->

	<person id="117">
		<plan selected="yes">
			<activity type="home" x="252124.48407405548" y="5894257.882838333" end_time="06:00:00" >
			</activity>
			<leg mode="car">
			</leg>
			<activity type="home" x="252124.48407405548" y="5894257.882838333" >
			</activity>
		</plan>

	</person>

<!-- ====================================================================== -->

	<person id="118">
		<plan selected="yes">
			<activity type="home" x="252133.751963587" y="5894121.8992335005" end_time="06:00:00" >
			</activity>
			<leg mode="car">
			</leg>
			<activity type="home" x="252133.751963587" y="5894121.8992335005" >
			</activity>
		</plan>

	</person>

<!-- ====================================================================== -->

	<person id="119">
		<plan selected="yes">
			<activity type="home" x="252172.84982526847" y="5894192.416257076" end_time="06:00:00" >
			</activity>
			<leg mode="car">
			</leg>
			<activity type="home" x="252172.84982526847" y="5894192.416257076" >
			</activity>
		</plan>

	</person>

<!-- ====================================================================== -->

	<person id="12">
		<plan selected="yes">
			<activity type="home" x="252117.47506302857" y="5894143.462544759" end_time="06:00:00" >
			</activity>
			<leg mode="car">
			</leg>
			<activity type="home" x="252117.47506302857" y="5894143.462544759" >
			</activity>
		</plan>

	</person>

<!-- ====================================================================== -->

	<person id="120">
		<plan selected="yes">
			<activity type="home" x="252125.46027319" y="5894348.055204788" end_time="06:00:00" >
			</activity>
			<leg mode="car">
			</leg>
			<activity type="home" x="252125.46027319" y="5894348.055204788" >
			</activity>
		</plan>

	</person>

<!-- ====================================================================== -->

	<person id="121">
		<plan selected="yes">
			<activity type="home" x="252125.60562866533" y="5894105.524899113" end_time="06:00:00" >
			</activity>
			<leg mode="car">
			</leg>
			<activity type="home" x="252125.60562866533" y="5894105.524899113" >
			</activity>
		</plan>

	</person>

<!-- ====================================================================== -->

	<person id="122">
		<plan selected="yes">
			<activity type="home" x="252166.52106785437" y="5894278.65141152" end_time="06:00:00" >
			</activity>
			<leg mode="car">
			</leg>
			<activity type="home" x="252166.52106785437" y="5894278.65141152" >
			</activity>
		</plan>

	</person>

<!-- ====================================================================== -->

	<person id="123">
		<plan selected="yes">
			<activity type="home" x="252176.05471966937" y="5894246.0342571605" end_time="06:00:00" >
			</activity>
			<leg mode="car">
			</leg>
			<activity type="home" x="252176.05471966937" y="5894246.0342571605" >
			</activity>
		</plan>

	</person>

<!-- ====================================================================== -->

	<person id="124">
		<plan selected="yes">
			<activity type="home" x="252143.63174760377" y="5894405.361975154" end_time="06:00:00" >
			</activity>
			<leg mode="car">
			</leg>
			<activity type="home" x="252143.63174760377" y="5894405.361975154" >
			</activity>
		</plan>

	</person>

<!-- ====================================================================== -->

	<person id="125">
		<plan selected="yes">
			<activity type="home" x="252158.454883485" y="5894251.38892209" end_time="06:00:00" >
			</activity>
			<leg mode="car">
			</leg>
			<activity type="home" x="252158.454883485" y="5894251.38892209" >
			</activity>
		</plan>

	</person>

<!-- ====================================================================== -->

	<person id="126">
		<plan selected="yes">
			<activity type="home" x="252135.06942464548" y="5894415.845012841" end_time="06:00:00" >
			</activity>
			<leg mode="car">
			</leg>
			<activity type="home" x="252135.06942464548" y="5894415.845012841" >
			</activity>
		</plan>

	</person>

<!-- ====================================================================== -->

	<person id="127">
		<plan selected="yes">
			<activity type="home" x="252155.63845077335" y="5894090.206234871" end_time="06:00:00" >
			</activity>
			<leg mode="car">
			</leg>
			<activity type="home" x="252155.63845077335" y="5894090.206234871" >
			</activity>
		</plan>

	</person>

<!-- ====================================================================== -->

	<person id="128">
		<plan selected="yes">
			<activity type="home" x="252120.74404090617" y="5894166.6841134215" end_time="06:00:00" >
			</activity>
			<leg mode="car">
			</leg>
			<activity type="home" x="252120.74404090617" y="5894166.6841134215" >
			</activity>
		</plan>

	</person>

<!-- ====================================================================== -->

	<person id="129">
		<plan selected="yes">
			<activity type="home" x="252132.71012157795" y="5894315.639525265" end_time="06:00:00" >
			</activity>
			<leg mode="car">
			</leg>
			<activity type="home" x="252132.71012157795" y="5894315.639525265" >
			</activity>
		</plan>

	</person>

<!-- ====================================================================== -->

	<person id="13">
		<plan selected="yes">
			<activity type="home" x="252125.5868695088" y="5894385.145607634" end_time="06:00:00" >
			</activity>
			<leg mode="car">
			</leg>
			<activity type="home" x="252125.5868695088" y="5894385.145607634" >
			</activity>
		</plan>

	</person>

<!-- ====================================================================== -->

	<person id="130">
		<plan selected="yes">
			<activity type="home" x="252147.2039662977" y="5894306.820091044" end_time="06:00:00" >
			</activity>
			<leg mode="car">
			</leg>
			<activity type="home" x="252147.2039662977" y="5894306.820091044" >
			</activity>
		</plan>

	</person>

<!-- ====================================================================== -->

	<person id="131">
		<plan selected="yes">
			<activity type="home" x="252184.40232611567" y="5894311.561136052" end_time="06:00:00" >
			</activity>
			<leg mode="car">
			</leg>
			<activity type="home" x="252184.40232611567" y="5894311.561136052" >
			</activity>
		</plan>

	</person>

<!-- ====================================================================== -->

	<person id="132">
		<plan selected="yes">
			<activity type="home" x="252148.4563785339" y="5894100.026162321" end_time="06:00:00" >
			</activity>
			<leg mode="car">
			</leg>
			<activity type="home" x="252148.4563785339" y="5894100.026162321" >
			</activity>
		</plan>

	</person>

<!-- ====================================================================== -->

	<person id="133">
		<plan selected="yes">
			<activity type="home" x="252187.30517677474" y="5894283.970561147" end_time="06:00:00" >
			</activity>
			<leg mode="car">
			</leg>
			<activity type="home" x="252187.30517677474" y="5894283.970561147" >
			</activity>
		</plan>

	</person>

<!-- ====================================================================== -->

	<person id="134">
		<plan selected="yes">
			<activity type="home" x="252126.04879415207" y="5894207.935061446" end_time="06:00:00" >
			</activity>
			<leg mode="car">
			</leg>
			<activity type="home" x="252126.04879415207" y="5894207.935061446" >
			</activity>
		</plan>

	</person>

<!-- ====================================================================== -->

	<person id="135">
		<plan selected="yes">
			<activity type="home" x="252119.9131554336" y="5894265.427219402" end_time="06:00:00" >
			</activity>
			<leg mode="car">
			</leg>
			<activity type="home" x="252119.9131554336" y="5894265.427219402" >
			</activity>
		</plan>

	</person>

<!-- ====================================================================== -->

	<person id="136">
		<plan selected="yes">
			<activity type="home" x="252163.11487405098" y="5894084.230283761" end_time="06:00:00" >
			</activity>
			<leg mode="car">
			</leg>
			<activity type="home" x="252163.11487405098" y="5894084.230283761" >
			</activity>
		</plan>

	</person>

<!-- ====================================================================== -->

	<person id="137">
		<plan selected="yes">
			<activity type="home" x="252122.93499217983" y="5894272.091825382" end_time="06:00:00" >
			</activity>
			<leg mode="car">
			</leg>
			<activity type="home" x="252122.93499217983" y="5894272.091825382" >
			</activity>
		</plan>

	</person>

<!-- ====================================================================== -->

	<person id="138">
		<plan selected="yes">
			<activity type="home" x="252121.67535717384" y="5894361.524547438" end_time="06:00:00" >
			</activity>
			<leg mode="car">
			</leg>
			<activity type="home" x="252121.67535717384" y="5894361.524547438" >
			</activity>
		</plan>

	</person>

<!-- ====================================================================== -->

	<person id="139">
		<plan selected="yes">
			<activity type="home" x="252164.358188908" y="5894428.027310238" end_time="06:00:00" >
			</activity>
			<leg mode="car">
			</leg>
			<activity type="home" x="252164.358188908" y="5894428.027310238" >
			</activity>
		</plan>

	</person>

<!-- ====================================================================== -->

	<person id="14">
		<plan selected="yes">
			<activity type="home" x="252118.35289241778" y="5894343.879554847" end_time="06:00:00" >
			</activity>
			<leg mode="car">
			</leg>
			<activity type="home" x="252118.35289241778" y="5894343.879554847" >
			</activity>
		</plan>

	</person>

<!-- ====================================================================== -->

	<person id="140">
		<plan selected="yes">
			<activity type="home" x="252141.09606349928" y="5894332.661122402" end_time="06:00:00" >
			</activity>
			<leg mode="car">
			</leg>
			<activity type="home" x="252141.09606349928" y="5894332.661122402" >
			</activity>
		</plan>

	</person>

<!-- ====================================================================== -->

	<person id="141">
		<plan selected="yes">
			<activity type="home" x="252189.92603809165" y="5894365.16771673" end_time="06:00:00" >
			</activity>
			<leg mode="car">
			</leg>
			<activity type="home" x="252189.92603809165" y="5894365.16771673" >
			</activity>
		</plan>

	</person>

<!-- ====================================================================== -->

	<person id="142">
		<plan selected="yes">
			<activity type="home" x="252174.27305812875" y="5894309.621265446" end_time="06:00:00" >
			</activity>
			<leg mode="car">
			</leg>
			<activity type="home" x="252174.27305812875" y="5894309.621265446" >
			</activity>
		</plan>

	</person>

<!-- ====================================================================== -->

	<person id="143">
		<plan selected="yes">
			<activity type="home" x="252121.5540539059" y="5894161.530428235" end_time="06:00:00" >
			</activity>
			<leg mode="car">
			</leg>
			<activity type="home" x="252121.5540539059" y="5894161.530428235" >
			</activity>
		</plan>

	</person>

<!-- ====================================================================== -->

	<person id="144">
		<plan selected="yes">
			<activity type="home" x="252170.02064250145" y="5894299.110486094" end_time="06:00:00" >
			</activity>
			<leg mode="car">
			</leg>
			<activity type="home" x="252170.02064250145" y="5894299.110486094" >
			</activity>
		</plan>

	</person>

<!-- ====================================================================== -->

	<person id="145">
		<plan selected="yes">
			<activity type="home" x="252136.5623667384" y="5894419.973471728" end_time="06:00:00" >
			</activity>
			<leg mode="car">
			</leg>
			<activity type="home" x="252136.5623667384" y="5894419.973471728" >
			</activity>
		</plan>

	</person>

<!-- ====================================================================== -->

	<person id="146">
		<plan selected="yes">
			<activity type="home" x="252155.86110974554" y="5894215.027289462" end_time="06:00:00" >
			</activity>
			<leg mode="car">
			</leg>
			<activity type="home" x="252155.86110974554" y="5894215.027289462" >
			</activity>
		</plan>

	</person>

<!-- ====================================================================== -->

	<person id="147">
		<plan selected="yes">
			<activity type="home" x="252117.84094688907" y="5894248.217783923" end_time="06:00:00" >
			</activity>
			<leg mode="car">
			</leg>
			<activity type="home" x="252117.84094688907" y="5894248.217783923" >
			</activity>
		</plan>

	</person>

<!-- ====================================================================== -->

	<person id="148">
		<plan selected="yes">
			<activity type="home" x="252143.08490025677" y="5894141.290949267" end_time="06:00:00" >
			</activity>
			<leg mode="car">
			</leg>
			<activity type="home" x="252143.08490025677" y="5894141.290949267" >
			</activity>
		</plan>

	</person>

<!-- ====================================================================== -->

	<person id="149">
		<plan selected="yes">
			<activity type="home" x="252181.08473361793" y="5894370.534262792" end_time="06:00:00" >
			</activity>
			<leg mode="car">
			</leg>
			<activity type="home" x="252181.08473361793" y="5894370.534262792" >
			</activity>
		</plan>

	</person>

<!-- ====================================================================== -->

	<person id="15">
		<plan selected="yes">
			<activity type="home" x="252171.64666808696" y="5894212.100978675" end_time="06:00:00" >
			</activity>
			<leg mode="car">
			</leg>
			<activity type="home" x="252171.64666808696" y="5894212.100978675" >
			</activity>
		</plan>

	</person>

<!-- ====================================================================== -->

	<person id="150">
		<plan selected="yes">
			<activity type="home" x="252155.46339764853" y="5894322.753369594" end_time="06:00:00" >
			</activity>
			<leg mode="car">
			</leg>
			<activity type="home" x="252155.46339764853" y="5894322.753369594" >
			</activity>
		</plan>

	</person>

<!-- ====================================================================== -->

	<person id="151">
		<plan selected="yes">
			<activity type="home" x="252174.676182152" y="5894426.465339286" end_time="06:00:00" >
			</activity>
			<leg mode="car">
			</leg>
			<activity type="home" x="252174.676182152" y="5894426.465339286" >
			</activity>
		</plan>

	</person>

<!-- ====================================================================== -->

	<person id="152">
		<plan selected="yes">
			<activity type="home" x="252143.85798601617" y="5894268.580271964" end_time="06:00:00" >
			</activity>
			<leg mode="car">
			</leg>
			<activity type="home" x="252143.85798601617" y="5894268.580271964" >
			</activity>
		</plan>

	</person>

<!-- ====================================================================== -->

	<person id="153">
		<plan selected="yes">
			<activity type="home" x="252142.55179529585" y="5894365.298918422" end_time="06:00:00" >
			</activity>
			<leg mode="car">
			</leg>
			<activity type="home" x="252142.55179529585" y="5894365.298918422" >
			</activity>
		</plan>

	</person>

<!-- ====================================================================== -->

	<person id="154">
		<plan selected="yes">
			<activity type="home" x="252140.28973959337" y="5894198.697836479" end_time="06:00:00" >
			</activity>
			<leg mode="car">
			</leg>
			<activity type="home" x="252140.28973959337" y="5894198.697836479" >
			</activity>
		</plan>

	</person>

<!-- ====================================================================== -->

	<person id="155">
		<plan selected="yes">
			<activity type="home" x="252178.0727727551" y="5894351.944537966" end_time="06:00:00" >
			</activity>
			<leg mode="car">
			</leg>
			<activity type="home" x="252178.0727727551" y="5894351.944537966" >
			</activity>
		</plan>

	</person>

<!-- ====================================================================== -->

	<person id="156">
		<plan selected="yes">
			<activity type="home" x="252126.01889594903" y="5894377.674259479" end_time="06:00:00" >
			</activity>
			<leg mode="car">
			</leg>
			<activity type="home" x="252126.01889594903" y="5894377.674259479" >
			</activity>
		</plan>

	</person>

<!-- ====================================================================== -->

	<person id="157">
		<plan selected="yes">
			<activity type="home" x="252117.9389177318" y="5894343.757265079" end_time="06:00:00" >
			</activity>
			<leg mode="car">
			</leg>
			<activity type="home" x="252117.9389177318" y="5894343.757265079" >
			</activity>
		</plan>

	</person>

<!-- ====================================================================== -->

	<person id="158">
		<plan selected="yes">
			<activity type="home" x="252127.7470653389" y="5894408.578502043" end_time="06:00:00" >
			</activity>
			<leg mode="car">
			</leg>
			<activity type="home" x="252127.7470653389" y="5894408.578502043" >
			</activity>
		</plan>

	</person>

<!-- ====================================================================== -->

	<person id="159">
		<plan selected="yes">
			<activity type="home" x="252115.27429016557" y="5894373.595395027" end_time="06:00:00" >
			</activity>
			<leg mode="car">
			</leg>
			<activity type="home" x="252115.27429016557" y="5894373.595395027" >
			</activity>
		</plan>

	</person>

<!-- ====================================================================== -->

	<person id="16">
		<plan selected="yes">
			<activity type="home" x="252173.6560834562" y="5894336.224807294" end_time="06:00:00" >
			</activity>
			<leg mode="car">
			</leg>
			<activity type="home" x="252173.6560834562" y="5894336.224807294" >
			</activity>
		</plan>

	</person>

<!-- ====================================================================== -->

	<person id="160">
		<plan selected="yes">
			<activity type="home" x="252152.41122606624" y="5894405.947254848" end_time="06:00:00" >
			</activity>
			<leg mode="car">
			</leg>
			<activity type="home" x="252152.41122606624" y="5894405.947254848" >
			</activity>
		</plan>

	</person>

<!-- ====================================================================== -->

	<person id="161">
		<plan selected="yes">
			<activity type="home" x="252162.24916514772" y="5894059.694221058" end_time="06:00:00" >
			</activity>
			<leg mode="car">
			</leg>
			<activity type="home" x="252162.24916514772" y="5894059.694221058" >
			</activity>
		</plan>

	</person>

<!-- ====================================================================== -->

	<person id="162">
		<plan selected="yes">
			<activity type="home" x="252191.91370268897" y="5894251.424048404" end_time="06:00:00" >
			</activity>
			<leg mode="car">
			</leg>
			<activity type="home" x="252191.91370268897" y="5894251.424048404" >
			</activity>
		</plan>

	</person>

<!-- ====================================================================== -->

	<person id="163">
		<plan selected="yes">
			<activity type="home" x="252114.1063471406" y="5894286.353547791" end_time="06:00:00" >
			</activity>
			<leg mode="car">
			</leg>
			<activity type="home" x="252114.1063471406" y="5894286.353547791" >
			</activity>
		</plan>

	</person>

<!-- ====================================================================== -->

	<person id="164">
		<plan selected="yes">
			<activity type="home" x="252152.54349687693" y="5894141.895642519" end_time="06:00:00" >
			</activity>
			<leg mode="car">
			</leg>
			<activity type="home" x="252152.54349687693" y="5894141.895642519" >
			</activity>
		</plan>

	</person>

<!-- ====================================================================== -->

	<person id="165">
		<plan selected="yes">
			<activity type="home" x="252191.68277890672" y="5894091.846053473" end_time="06:00:00" >
			</activity>
			<leg mode="car">
			</leg>
			<activity type="home" x="252191.68277890672" y="5894091.846053473" >
			</activity>
		</plan>

	</person>

<!-- ====================================================================== -->

	<person id="166">
		<plan selected="yes">
			<activity type="home" x="252160.0907825612" y="5894367.49064919" end_time="06:00:00" >
			</activity>
			<leg mode="car">
			</leg>
			<activity type="home" x="252160.0907825612" y="5894367.49064919" >
			</activity>
		</plan>

	</person>

<!-- ====================================================================== -->

	<person id="167">
		<plan selected="yes">
			<activity type="home" x="252115.99000452046" y="5894099.607650694" end_time="06:00:00" >
			</activity>
			<leg mode="car">
			</leg>
			<activity type="home" x="252115.99000452046" y="5894099.607650694" >
			</activity>
		</plan>

	</person>

<!-- ====================================================================== -->

	<person id="168">
		<plan selected="yes">
			<activity type="home" x="252187.0711480519" y="5894109.035218067" end_time="06:00:00" >
			</activity>
			<leg mode="car">
			</leg>
			<activity type="home" x="252187.0711480519" y="5894109.035218067" >
			</activity>
		</plan>

	</person>

<!-- ====================================================================== -->

	<person id="169">
		<plan selected="yes">
			<activity type="home" x="252128.02879405802" y="5894184.8700935105" end_time="06:00:00" >
			</activity>
			<leg mode="car">
			</leg>
			<activity type="home" x="252128.02879405802" y="5894184.8700935105" >
			</activity>
		</plan>

	</person>

<!-- ====================================================================== -->

	<person id="17">
		<plan selected="yes">
			<activity type="home" x="252176.90355725322" y="5894163.740348583" end_time="06:00:00" >
			</activity>
			<leg mode="car">
			</leg>
			<activity type="home" x="252176.90355725322" y="5894163.740348583" >
			</activity>
		</plan>

	</person>

<!-- ====================================================================== -->

	<person id="170">
		<plan selected="yes">
			<activity type="home" x="252175.1452999469" y="5894290.055864572" end_time="06:00:00" >
			</activity>
			<leg mode="car">