<?xml version="1.0" encoding="utf-8"?>
<!DOCTYPE population SYSTEM "http://www.matsim.org/files/dtd/population_v6.dtd">

<population>



<!-- ====================================================================== -->

	<person id="0">
		<plan selected="yes">
			<activity type="home" x="238956.2162038625" y="5901816.901546365" end_time="06:00:00" >
			</activity>
			<leg mode="car">
			</leg>
			<activity type="home" x="238956.2162038625" y="5901816.901546365" >
			</activity>
		</plan>

	</person>

<!-- ====================================================================== -->

	<person id="1">
		<plan selected="yes">
			<activity type="home" x="238482.39921723868" y="5902123.481657952" end_time="06:00:00" >
			</activity>
			<leg mode="car">
			</leg>
			<activity type="home" x="238482.39921723868" y="5902123.481657952" >
			</activity>
		</plan>

	</person>

<!-- ====================================================================== -->

	<person id="10">
		<plan selected="yes">
			<activity type="home" x="238772.55604492364" y="5902448.727525847" end_time="06:00:00" >
			</activity>
			<leg mode="car">
			</leg>
			<activity type="home" x="238772.55604492364" y="5902448.727525847" >
			</activity>
		</plan>

	</person>

<!-- ====================================================================== -->

	<person id="11">
		<plan selected="yes">
			<activity type="home" x="238884.78380957106" y="5901922.958459134" end_time="06:00:00" >
			</activity>
			<leg mode="car">
			</leg>
			<activity type="home" x="238884.78380957106" y="5901922.958459134" >
			</activity>
		</plan>

	</person>

<!-- ====================================================================== -->

	<person id="12">
		<plan selected="yes">
			<activity type="home" x="239324.1525483274" y="5901759.231813932" end_time="06:00:00" >
			</activity>
			<leg mode="car">
			</leg>
			<activity type="home" x="239324.1525483274" y="5901759.231813932" >
			</activity>
		</plan>

	</person>

<!-- ====================================================================== -->

	<person id="13">
		<plan selected="yes">
			<activity type="home" x="238367.52957137022" y="5902376.69434031" end_time="06:00:00" >
			</activity>
			<leg mode="car">
			</leg>
			<activity type="home" x="238367.52957137022" y="5902376.69434031" >
			</activity>
		</plan>

	</person>

<!-- ====================================================================== -->

	<person id="14">
		<plan selected="yes">
			<activity type="home" x="238479.23170923995" y="5902110.446145875" end_time="06:00:00" >
			</activity>
			<leg mode="car">
			</leg>
			<activity type="home" x="238479.23170923995" y="5902110.446145875" >
			</activity>
		</plan>

	</person>

<!-- ====================================================================== -->

	<person id="15">
		<plan selected="yes">
			<activity type="home" x="238742.88055319927" y="5902225.725117061" end_time="06:00:00" >
			</activity>
			<leg mode="car">
			</leg>
			<activity type="home" x="238742.88055319927" y="5902225.725117061" >
			</activity>
		</plan>

	</person>

<!-- ====================================================================== -->

	<person id="16">
		<plan selected="yes">
			<activity type="home" x="238435.29758365548" y="5902146.469699723" end_time="06:00:00" >
			</activity>
			<leg mode="car">
			</leg>
			<activity type="home" x="238435.29758365548" y="5902146.469699723" >
			</activity>
		</plan>

	</person>

<!-- ====================================================================== -->

	<person id="17">
		<plan selected="yes">
			<activity type="home" x="238615.28369127322" y="5902397.623948367" end_time="06:00:00" >
			</activity>
			<leg mode="car">
			</leg>
			<activity type="home" x="238615.28369127322" y="5902397.623948367" >
			</activity>
		</plan>

	</person>

<!-- ====================================================================== -->

	<person id="18">
		<plan selected="yes">
			<activity type="home" x="238935.26400755736" y="5901704.013739645" end_time="06:00:00" >
			</activity>
			<leg mode="car">
			</leg>
			<activity type="home" x="238935.26400755736" y="5901704.013739645" >
			</activity>
		</plan>

	</person>

<!-- ====================================================================== -->

	<person id="19">
		<plan selected="yes">
			<activity type="home" x="238360.07446879562" y="5902204.902189476" end_time="06:00:00" >
			</activity>
			<leg mode="car">
			</leg>
			<activity type="home" x="238360.07446879562" y="5902204.902189476" >
			</activity>
		</plan>

	</person>

<!-- ====================================================================== -->

	<person id="2">
		<plan selected="yes">
			<activity type="home" x="238730.18372180374" y="5901729.679616952" end_time="06:00:00" >
			</activity>
			<leg mode="car">
			</leg>
			<activity type="home" x="238730.18372180374" y="5901729.679616952" >
			</activity>
		</plan>

	</person>

<!-- ====================================================================== -->

	<person id="20">
		<plan selected="yes">
			<activity type="home" x="238491.54585469738" y="5901915.019983616" end_time="06:00:00" >
			</activity>
			<leg mode="car">
			</leg>
			<activity type="home" x="238491.54585469738" y="5901915.019983616" >
			</activity>
		</plan>

	</person>

<!-- ====================================================================== -->

	<person id="21">
		<plan selected="yes">
			<activity type="home" x="239187.78819012534" y="5901976.960039034" end_time="06:00:00" >
			</activity>
			<leg mode="car">
			</leg>
			<activity type="home" x="239187.78819012534" y="5901976.960039034" >
			</activity>
		</plan>

	</person>

<!-- ====================================================================== -->

	<person id="22">
		<plan selected="yes">
			<activity type="home" x="238781.4930841821" y="5902117.090151784" end_time="06:00:00" >
			</activity>
			<leg mode="car">
			</leg>
			<activity type="home" x="238781.4930841821" y="5902117.090151784" >
			</activity>
		</plan>

	</person>

<!-- ====================================================================== -->

	<person id="23">
		<plan selected="yes">
			<activity type="home" x="238516.50942423366" y="5902210.258581088" end_time="06:00:00" >
			</activity>
			<leg mode="car">
			</leg>
			<activity type="home" x="238516.50942423366" y="5902210.258581088" >
			</activity>
		</plan>

	</person>

<!-- ====================================================================== -->

	<person id="24">
		<plan selected="yes">
			<activity type="home" x="238677.08264265515" y="5901740.726697314" end_time="06:00:00" >
			</activity>
			<leg mode="car">
			</leg>
			<activity type="home" x="238677.08264265515" y="5901740.726697314" >
			</activity>
		</plan>

	</person>

<!-- ====================================================================== -->

	<person id="25">
		<plan selected="yes">
			<activity type="home" x="239279.22147529258" y="5902076.920213434" end_time="06:00:00" >
			</activity>
			<leg mode="car">
			</leg>
			<activity type="home" x="239279.22147529258" y="5902076.920213434" >
			</activity>
		</plan>

	</person>

<!-- ====================================================================== -->

	<person id="26">
		<plan selected="yes">
			<activity type="home" x="238873.7959197253" y="5901792.7172741825" end_time="06:00:00" >
			</activity>
			<leg mode="car">
			</leg>
			<activity type="home" x="238873.7959197253" y="5901792.7172741825" >
			</activity>
		</plan>

	</person>

<!-- ====================================================================== -->

	<person id="27">
		<plan selected="yes">
			<activity type="home" x="239213.04100509957" y="5901678.835853736" end_time="06:00:00" >
			</activity>
			<leg mode="car">
			</leg>
			<activity type="home" x="239213.04100509957" y="5901678.835853736" >
			</activity>
		</plan>

	</person>

<!-- ====================================================================== -->

	<person id="28">
		<plan selected="yes">
			<activity type="home" x="238371.85889810676" y="5901878.893295785" end_time="06:00:00" >
			</activity>
			<leg mode="car">
			</leg>
			<activity type="home" x="238371.85889810676" y="5901878.893295785" >
			</activity>
		</plan>

	</person>

<!-- ====================================================================== -->

	<person id="29">
		<plan selected="yes">
			<activity type="home" x="238373.82098210955" y="5902412.897717236" end_time="06:00:00" >
			</activity>
			<leg mode="car">
			</leg>
			<activity type="home" x="238373.82098210955" y="5902412.897717236" >
			</activity>
		</plan>

	</person>

<!-- ====================================================================== -->

	<person id="3">
		<plan selected="yes">
			<activity type="home" x="238348.91453674866" y="5902010.798873297" end_time="06:00:00" >
			</activity>
			<leg mode="car">
			</leg>
			<activity type="home" x="238348.91453674866" y="5902010.798873297" >
			</activity>
		</plan>

	</person>

<!-- ====================================================================== -->

	<person id="30">
		<plan selected="yes">
			<activity type="home" x="238499.73487429443" y="5902388.681947748" end_time="06:00:00" >
			</activity>
			<leg mode="car">
			</leg>
			<activity type="home" x="238499.73487429443" y="5902388.681947748" >
			</activity>
		</plan>

	</person>

<!-- ====================================================================== -->

	<person id="31">
		<plan selected="yes">
			<activity type="home" x="238936.57555482056" y="5901727.096829647" end_time="06:00:00" >
			</activity>
			<leg mode="car">
			</leg>
			<activity type="home" x="238936.57555482056" y="5901727.096829647" >
			</activity>
		</plan>

	</person>

<!-- ====================================================================== -->

	<person id="32">
		<plan selected="yes">
			<activity type="home" x="238751.1441641648" y="5902169.386037301" end_time="06:00:00" >
			</activity>
			<leg mode="car">
			</leg>
			<activity type="home" x="238751.1441641648" y="5902169.386037301" >
			</activity>
		</plan>

	</person>

<!-- ====================================================================== -->

	<person id="33">
		<plan selected="yes">
			<activity type="home" x="238546.88790999397" y="5902470.022497517" end_time="06:00:00" >
			</activity>
			<leg mode="car">
			</leg>
			<activity type="home" x="238546.88790999397" y="5902470.022497517" >
			</activity>
		</plan>

	</person>

<!-- ====================================================================== -->

	<person id="34">
		<plan selected="yes">
			<activity type="home" x="238899.0798445188" y="5901940.540453161" end_time="06:00:00" >
			</activity>
			<leg mode="car">
			</leg>
			<activity type="home" x="238899.0798445188" y="5901940.540453161" >
			</activity>
		</plan>

	</person>

<!-- ====================================================================== -->

	<person id="35">
		<plan selected="yes">
			<activity type="home" x="238869.29044789093" y="5902236.754011121" end_time="06:00:00" >
			</activity>
			<leg mode="car">
			</leg>
			<activity type="home" x="238869.29044789093" y="5902236.754011121" >
			</activity>
		</plan>

	</person>

<!-- ====================================================================== -->

	<person id="36">
		<plan selected="yes">
			<activity type="home" x="238724.80798237078" y="5902253.182086036" end_time="06:00:00" >
			</activity>
			<leg mode="car">
			</leg>
			<activity type="home" x="238724.80798237078" y="5902253.182086036" >
			</activity>
		</plan>

	</person>

<!-- ====================================================================== -->

	<person id="37">
		<plan selected="yes">
			<activity type="home" x="238712.87774494104" y="5901930.270119762" end_time="06:00:00" >
			</activity>
			<leg mode="car">
			</leg>
			<activity type="home" x="238712.87774494104" y="5901930.270119762" >
			</activity>
		</plan>

	</person>

<!-- ====================================================================== -->

	<person id="38">
		<plan selected="yes">
			<activity type="home" x="239065.06035472942" y="5901730.831708327" end_time="06:00:00" >
			</activity>
			<leg mode="car">
			</leg>
			<activity type="home" x="239065.06035472942" y="5901730.831708327" >
			</activity>
		</plan>

	</person>

<!-- ====================================================================== -->

	<person id="39">
		<plan selected="yes">
			<activity type="home" x="239042.89977720505" y="5902376.124267128" end_time="06:00:00" >
			</activity>
			<leg mode="car">
			</leg>
			<activity type="home" x="239042.89977720505" y="5902376.124267128" >
			</activity>
		</plan>

	</person>

<!-- ====================================================================== -->

	<person id="4">
		<plan selected="yes">
			<activity type="home" x="238434.0600837671" y="5901674.314358838" end_time="06:00:00" >
			</activity>
			<leg mode="car">
			</leg>
			<activity type="home" x="238434.0600837671" y="5901674.314358838" >
			</activity>
		</plan>

	</person>

<!-- ====================================================================== -->

	<person id="40">
		<plan selected="yes">
			<activity type="home" x="239317.10872376163" y="5902075.779119483" end_time="06:00:00" >
			</activity>
			<leg mode="car">
			</leg>
			<activity type="home" x="239317.10872376163" y="5902075.779119483" >
			</activity>
		</plan>

	</person>

<!-- ====================================================================== -->

	<person id="41">
		<plan selected="yes">
			<activity type="home" x="239035.27226824078" y="5901792.20897167" end_time="06:00:00" >
			</activity>
			<leg mode="car">
			</leg>
			<activity type="home" x="239035.27226824078" y="5901792.20897167" >
			</activity>
		</plan>

	</person>

<!-- ====================================================================== -->

	<person id="42">
		<plan selected="yes">
			<activity type="home" x="238841.3288387561" y="5902491.636682202" end_time="06:00:00" >
			</activity>
			<leg mode="car">
			</leg>
			<activity type="home" x="238841.3288387561" y="5902491.636682202" >
			</activity>
		</plan>

	</person>

<!-- ====================================================================== -->

	<person id="43">
		<plan selected="yes">
			<activity type="home" x="239298.03793130565" y="5902376.471152667" end_time="06:00:00" >
			</activity>
			<leg mode="car">
			</leg>
			<activity type="home" x="239298.03793130565" y="5902376.471152667" >
			</activity>
		</plan>

	</person>

<!-- ====================================================================== -->

	<person id="44">
		<plan selected="yes">
			<activity type="home" x="238982.43394833655" y="5901703.602326524" end_time="06:00:00" >
			</activity>
			<leg mode="car">
			</leg>
			<activity type="home" x="238982.43394833655" y="5901703.602326524" >
			</activity>
		</plan>

	</person>

<!-- ====================================================================== -->

	<person id="45">
		<plan selected="yes">
			<activity type="home" x="238973.18207715146" y="5902219.069321737" end_time="06:00:00" >
			</activity>
			<leg mode="car">
			</leg>
			<activity type="home" x="238973.18207715146" y="5902219.069321737" >
			</activity>
		</plan>

	</person>

<!-- ====================================================================== -->

	<person id="46">
		<plan selected="yes">
			<activity type="home" x="238993.1108820164" y="5902292.495074363" end_time="06:00:00" >
			</activity>
			<leg mode="car">
			</leg>
			<activity type="home" x="238993.1108820164" y="5902292.495074363" >
			</activity>
		</plan>

	</person>

<!-- ====================================================================== -->

	<person id="47">
		<plan selected="yes">
			<activity type="home" x="238841.15421138125" y="5902494.090205311" end_time="06:00:00" >
			</activity>
			<leg mode="car">
			</leg>
			<activity type="home" x="238841.15421138125" y="5902494.090205311" >
			</activity>
		</plan>

	</person>

<!-- ====================================================================== -->

	<person id="48">
		<plan selected="yes">
			<activity type="home" x="238659.39085597135" y="5901787.963559694" end_time="06:00:00" >
			</activity>
			<leg mode="car">
			</leg>
			<activity type="home" x="238659.39085597135" y="5901787.963559694" >
			</activity>
		</plan>

	</person>

<!-- ====================================================================== -->

	<person id="49">
		<plan selected="yes">
			<activity type="home" x="239343.34202473922" y="5902174.638590715" end_time="06:00:00" >
			</activity>
			<leg mode="car">
			</leg>
			<activity type="home" x="239343.34202473922" y="5902174.638590715" >
			</activity>
		</plan>

	</person>

<!-- ====================================================================== -->

	<person id="5">
		<plan selected="yes">
			<activity type="home" x="238415.1513115994" y="5902133.104405362" end_time="06:00:00" >
			</activity>
			<leg mode="car">
			</leg>
			<activity type="home" x="238415.1513115994" y="5902133.104405362" >
			</activity>
		</plan>

	</person>

<!-- ====================================================================== -->

	<person id="50">
		<plan selected="yes">
			<activity type="home" x="239162.6646628376" y="5902379.857287877" end_time="06:00:00" >
			</activity>
			<leg mode="car">
			</leg>
			<activity type="home" x="239162.6646628376" y="5902379.857287877" >
			</activity>
		</plan>

	</person>

<!-- ====================================================================== -->

	<person id="51">
		<plan selected="yes">
			<activity type="home" x="238378.15375216768" y="5902433.863066264" end_time="06:00:00" >
			</activity>
			<leg mode="car">
			</leg>
			<activity type="home" x="238378.15375216768" y="5902433.863066264" >
			</activity>
		</plan>

	</person>

<!-- ====================================================================== -->

	<person id="52">
		<plan selected="yes">
			<activity type="home" x="238536.28957189785" y="5902443.570458605" end_time="06:00:00" >
			</activity>
			<leg mode="car">
			</leg>
			<activity type="home" x="238536.28957189785" y="5902443.570458605" >
			</activity>
		</plan>

	</person>

<!-- ====================================================================== -->

	<person id="53">
		<plan selected="yes">
			<activity type="home" x="238663.67746445985" y="5902338.929734613" end_time="06:00:00" >
			</activity>
			<leg mode="car">
			</leg>
			<activity type="home" x="238663.67746445985" y="5902338.929734613" >
			</activity>
		</plan>

	</person>

<!-- ====================================================================== -->

	<person id="54">
		<plan selected="yes">
			<activity type="home" x="238537.18890641094" y="5901841.63692694" end_time="06:00:00" >
			</activity>
			<leg mode="car">
			</leg>
			<activity type="home" x="238537.18890641094" y="5901841.63692694" >
			</activity>
		</plan>

	</person>

<!-- ====================================================================== -->

	<person id="55">
		<plan selected="yes">
			<activity type="home" x="239139.57945909328" y="5901781.873788544" end_time="06:00:00" >
			</activity>
			<leg mode="car">
			</leg>
			<activity type="home" x="239139.57945909328" y="5901781.873788544" >
			</activity>
		</plan>

	</person>

<!-- ====================================================================== -->

	<person id="56">
		<plan selected="yes">
			<activity type="home" x="238539.18814480596" y="5902295.853014406" end_time="06:00:00" >
			</activity>
			<leg mode="car">
			</leg>
			<activity type="home" x="238539.18814480596" y="5902295.853014406" >
			</activity>
		</plan>

	</person>

<!-- ====================================================================== -->

	<person id="57">
		<plan selected="yes">
			<activity type="home" x="238858.7234985614" y="5901673.185979166" end_time="06:00:00" >
			</activity>
			<leg mode="car">
			</leg>
			<activity type="home" x="238858.7234985614" y="5901673.185979166" >
			</activity>
		</plan>

	</person>

<!-- ====================================================================== -->

	<person id="58">
		<plan selected="yes">
			<activity type="home" x="238572.09528364782" y="5902052.983327753" end_time="06:00:00" >
			</activity>
			<leg mode="car">
			</leg>
			<activity type="home" x="238572.09528364782" y="5902052.983327753" >
			</activity>
		</plan>

	</person>

<!-- ====================================================================== -->

	<person id="59">
		<plan selected="yes">
			<activity type="home" x="239119.75505357038" y="5901784.825473778" end_time="06:00:00" >
			</activity>
			<leg mode="car">
			</leg>
			<activity type="home" x="239119.75505357038" y="5901784.825473778" >
			</activity>
		</plan>

	</person>

<!-- ====================================================================== -->

	<person id="6">
		<plan selected="yes">
			<activity type="home" x="238939.27519541036" y="5901826.307716091" end_time="06:00:00" >
			</activity>
			<leg mode="car">
			</leg>
			<activity type="home" x="238939.27519541036" y="5901826.307716091" >
			</activity>
		</plan>

	</person>

<!-- ====================================================================== -->

	<person id="60">
		<plan selected="yes">
			<activity type="home" x="238620.40232598674" y="5901759.794785945" end_time="06:00:00" >
			</activity>
			<leg mode="car">
			</leg>
			<activity type="home" x="238620.40232598674" y="5901759.794785945" >
			</activity>
		</plan>

	</person>

<!-- ====================================================================== -->

	<person id="61">
		<plan selected="yes">
			<activity type="home" x="238577.82426334525" y="5902137.260035524" end_time="06:00:00" >
			</activity>
			<leg mode="car">
			</leg>
			<activity type="home" x="238577.82426334525" y="5902137.260035524" >
			</activity>
		</plan>

	</person>

<!-- ====================================================================== -->

	<person id="62">
		<plan selected="yes">
			<activity type="home" x="238492.9248657879" y="5902196.551760221" end_time="06:00:00" >
			</activity>
			<leg mode="car">
			</leg>
			<activity type="home" x="238492.9248657879" y="5902196.551760221" >
			</activity>
		</plan>

	</person>

<!-- ====================================================================== -->

	<person id="63">
		<plan selected="yes">
			<activity type="home" x="239128.76143475831" y="5901888.736019068" end_time="06:00:00" >
			</activity>
			<leg mode="car">
			</leg>
			<activity type="home" x="239128.76143475831" y="5901888.736019068" >
			</activity>
		</plan>

	</person>

<!-- ====================================================================== -->

	<person id="64">
		<plan selected="yes">
			<activity type="home" x="238843.39787479903" y="5901811.720481219" end_time="06:00:00" >
			</activity>
			<leg mode="car">
			</leg>
			<activity type="home" x="238843.39787479903" y="5901811.720481219" >
			</activity>
		</plan>

	</person>

<!-- ====================================================================== -->

	<person id="65">
		<plan selected="yes">
			<activity type="home" x="239132.03662414756" y="5902275.540443241" end_time="06:00:00" >
			</activity>
			<leg mode="car">
			</leg>
			<activity type="home" x="239132.03662414756" y="5902275.540443241" >
			</activity>
		</plan>

	</person>

<!-- ====================================================================== -->

	<person id="66">
		<plan selected="yes">
			<activity type="home" x="239113.29280821377" y="5902196.552315459" end_time="06:00:00" >
			</activity>
			<leg mode="car">
			</leg>
			<activity type="home" x="239113.29280821377" y="5902196.552315459" >
			</activity>
		</plan>

	</person>

<!-- ====================================================================== -->

	<person id="67">
		<plan selected="yes">
			<activity type="home" x="238605.98011927167" y="5901867.466133701" end_time="06:00:00" >
			</activity>
			<leg mode="car">
			</leg>
			<activity type="home" x="238605.98011927167" y="5901867.466133701" >
			</activity>
		</plan>

	</person>

<!-- ====================================================================== -->

	<person id="68">
		<plan selected="yes">
			<activity type="home" x="238998.78395807443" y="5901897.014808766" end_time="06:00:00" >
			</activity>
			<leg mode="car">
			</leg>
			<activity type="home" x="238998.78395807443" y="5901897.014808766" >
			</activity>
		</plan>

	</person>

<!-- ====================================================================== -->

	<person id="69">
		<plan selected="yes">
			<activity type="home" x="238688.6541065529" y="5902149.003076544" end_time="06:00:00" >
			</activity>
			<leg mode="car">
			</leg>
			<activity type="home" x="238688.6541065529" y="5902149.003076544" >
			</activity>
		</plan>

	</person>

<!-- ====================================================================== -->

	<person id="7">
		<plan selected="yes">
			<activity type="home" x="238925.65881417028" y="5902090.71527142" end_time="06:00:00" >
			</activity>
			<leg mode="car">
			</leg>
			<activity type="home" x="238925.65881417028" y="5902090.71527142" >
			</activity>
		</plan>

	</person>

<!-- ====================================================================== -->

	<person id="70">
		<plan selected="yes">
			<activity type="home" x="238900.91252824946" y="5902334.394697694" end_time="06:00:00" >
			</activity>
			<leg mode="car">
			</leg>
			<activity type="home" x="238900.91252824946" y="5902334.394697694" >
			</activity>
		</plan>

	</person>

<!-- ====================================================================== -->

	<person id="71">
		<plan selected="yes">
			<activity type="home" x="238495.695805734" y="5901694.421101299" end_time="06:00:00" >
			</activity>
			<leg mode="car">
			</leg>
			<activity type="home" x="238495.695805734" y="5901694.421101299" >
			</activity>
		</plan>

	</person>

<!-- ====================================================================== -->

	<person id="72">
		<plan selected="yes">
			<activity type="home" x="239314.53227146034" y="5902085.740756136" end_time="06:00:00" >
			</activity>
			<leg mode="car">
			</leg>
			<activity type="home" x="239314.53227146034" y="5902085.740756136" >
			</activity>
		</plan>

	</person>

<!-- ====================================================================== -->

	<person id="73">
		<plan selected="yes">
			<activity type="home" x="239206.8731268932" y="5902428.123591227" end_time="06:00:00" >
			</activity>
			<leg mode="car">
			</leg>
			<activity type="home" x="239206.8731268932" y="5902428.123591227" >
			</activity>
		</plan>

	</person>

<!-- ====================================================================== -->

	<person id="74">
		<plan selected="yes">
			<activity type="home" x="238351.48554882925" y="5902034.693404463" end_time="06:00:00" >
			</activity>
			<leg mode="car">
			</leg>
			<activity type="home" x="238351.48554882925" y="5902034.693404463" >
			</activity>
		</plan>

	</person>

<!-- ====================================================================== -->

	<person id="75">
		<plan selected="yes">
			<activity type="home" x="238969.52494702733" y="5902013.439403358" end_time="06:00:00" >
			</activity>
			<leg mode="car">
			</leg>
			<activity type="home" x="238969.52494702733" y="5902013.439403358" >
			</activity>
		</plan>

	</person>

<!-- ====================================================================== -->

	<person id="76">
		<plan selected="yes">
			<activity type="home" x="238338.32443734916" y="5901786.890943641" end_time="06:00:00" >
			</activity>
			<leg mode="car">
			</leg>
			<activity type="home" x="238338.32443734916" y="5901786.890943641" >
			</activity>
		</plan>

	</person>

<!-- ====================================================================== -->

	<person id="77">
		<plan selected="yes">
			<activity type="home" x="239141.50648453203" y="5902076.586442266" end_time="06:00:00" >
			</activity>
			<leg mode="car">
			</leg>
			<activity type="home" x="239141.50648453203" y="5902076.586442266" >
			</activity>
		</plan>

	</person>

<!-- ====================================================================== -->

	<person id="78">
		<plan selected="yes">
			<activity type="home" x="239214.51921467084" y="5901779.392519927" end_time="06:00:00" >
			</activity>
			<leg mode="car">
			</leg>
			<activity type="home" x="239214.51921467084" y="5901779.392519927" >
			</activity>
		</plan>

	</person>

<!-- ====================================================================== -->

	<person id="79">
		<plan selected="yes">
			<activity type="home" x="238325.71622205962" y="5901979.0484484155" end_time="06:00:00" >
			</activity>
			<leg mode="car">
			</leg>
			<activity type="home" x="238325.71622205962" y="5901979.0484484155" >
			</activity>
		</plan>

	</person>

<!-- ====================================================================== -->

	<person id="8">
		<plan selected="yes">
			<activity type="home" x="239354.36702767026" y="5902096.265168344" end_time="06:00:00" >
			</activity>
			<leg mode="car">
			</leg>
			<activity type="home" x="239354.36702767026" y="5902096.265168344" >
			</activity>
		</plan>

	</person>

<!-- ====================================================================== -->

	<person id="80">
		<plan selected="yes">
			<activity type="home" x="238435.99053101792" y="5902231.803904644" end_time="06:00:00" >
			</activity>
			<leg mode="car">
			</leg>
			<activity type="home" x="238435.99053101792" y="5902231.803904644" >
			</activity>
		</plan>

	</person>

<!-- ====================================================================== -->

	<person id="81">
		<plan selected="yes">
			<activity type="home" x="239010.2773232383" y="5902203.570267579" end_time="06:00:00" >
			</activity>
			<leg mode="car">
			</leg>