<?xml version='1.0' encoding='utf-8'?>
<!DOCTYPE population SYSTEM "http://www.matsim.org/files/dtd/population_v6.dtd">
<population>
  <!--============================================================================-->
  <person id="0">
    <plan selected="yes">
      <activity end_time="06:00:00" type="home" x="777658" y="5743903"/>
      <leg mode="car"/>
      <activity type="home" x="777658" y="5743903"/>
    </plan>
  </person>
  <!--============================================================================-->
  <person id="1">
    <plan selected="yes">
      <activity end_time="06:00:00" type="home" x="777658" y="5743903"/>
      <leg mode="car"/>
      <activity type="home" x="777658" y="5743903"/>
    </plan>
  </person>
  <!--============================================================================-->
  <person id="2">
    <plan selected="yes">
      <activity end_time="06:00:00" type="home" x="777658" y="5743903"/>
      <leg mode="car"/>
      <activity type="home" x="777658" y="5743903"/>
    </plan>
  </person>
  <!--============================================================================-->
  <person id="3">
    <plan selected="yes">
      <activity end_time="06:00:00" type="home" x="777658" y="5743903"/>
      <leg mode="car"/>
      <activity type="home" x="777658" y="5743903"/>
    </plan>
  </person>
  <!--============================================================================-->
  <person id="4">
    <plan selected="yes">
      <activity end_time="06:00:00" type="home" x="777548" y="5744612"/>
      <leg mode="car"/>
      <activity type="home" x="777548" y="5744612"/>
    </plan>
  </person>
  <!--============================================================================-->
  <person id="5">
    <plan selected="yes">
      <activity end_time="06:00:00" type="home" x="777548" y="5744612"/>
      <leg mode="car"/>
      <activity type="home" x="777548" y="5744612"/>
    </plan>
  </person>
  <!--============================================================================-->
  <person id="6">
    <plan selected="yes">
      <activity end_time="06:00:00" type="home" x="777548" y="5744612"/>
      <leg mode="car"/>
      <activity type="home" x="777548" y="5744612"/>
    </plan>
  </person>
  <!--============================================================================-->
  <person id="7">
    <plan selected="yes">
      <activity end_time="06:00:00" type="home" x="777548" y="5744612"/>
      <leg mode="car"/>
      <activity type="home" x="777548" y="5744612"/>
    </plan>
  </person>
  <!--============================================================================-->
  <person id="8">
    <plan selected="yes">
      <activity end_time="06:00:00" type="home" x="777508" y="5742708"/>
      <leg mode="car"/>
      <activity type="home" x="777508" y="5742708"/>
    </plan>
  </person>
  <!--============================================================================-->
  <person id="9">
    <plan selected="yes">
      <activity end_time="06:00:00" type="home" x="777508" y="5742708"/>
      <leg mode="car"/>
      <activity type="home" x="777508" y="5742708"/>
    </plan>
  </person>
  <!--============================================================================-->
  <person id="10">
    <plan selected="yes">
      <activity end_time="06:00:00" type="home" x="777508" y="5742708"/>
      <leg mode="car"/>
      <activity type="home" x="777508" y="5742708"/>
    </plan>
  </person>
  <!--============================================================================-->
  <person id="11">
    <plan selected="yes">
      <activity end_time="06:00:00" type="home" x="777508" y="5742708"/>
      <leg mode="car"/>
      <activity type="home" x="777508" y="5742708"/>
    </plan>
  </person>
  <!--============================================================================-->
  <person id="12">
    <plan selected="yes">
      <activity end_time="06:00:00" type="home" x="776327" y="5743550"/>
      <leg mode="car"/>
      <activity type="home" x="776327" y="5743550"/>
    </plan>
  </person>
  <!--============================================================================-->
  <person id="13">
    <plan selected="yes">
      <activity end_time="06:00:00" type="home" x="776327" y="5743550"/>
      <leg mode="car"/>
      <activity type="home" x="776327" y="5743550"/>
    </plan>
  </person>
  <!--============================================================================-->
  <person id="14">
    <plan selected="yes">
      <activity end_time="06:00:00" type="home" x="776327" y="5743550"/>
      <leg mode="car"/>
      <activity type="home" x="776327" y="5743550"/>
    </plan>
  </person>
  <!--============================================================================-->
  <person id="15">
    <plan selected="yes">
      <activity end_time="06:00:00" type="home" x="776327" y="5743550"/>
      <leg mode="car"/>
      <activity type="home" x="776327" y="5743550"/>
    </plan>
  </person>
  <!--============================================================================-->
  <person id="16">
    <plan selected="yes">
      <activity end_time="06:00:00" type="home" x="776814" y="5743035"/>
      <leg mode="car"/>
      <activity type="home" x="776814" y="5743035"/>
    </plan>
  </person>
  <!--============================================================================-->
  <person id="17">
    <plan selected="yes">
      <activity end_time="06:00:00" type="home" x="778483" y="5744475"/>
      <leg mode="car"/>
      <activity type="home" x="778483" y="5744475"/>
    </plan>
  </person>
  <!--============================================================================-->
  <person id="18">
    <plan selected="yes">
      <activity end_time="06:00:00" type="home" x="776814" y="5743035"/>
      <leg mode="car"/>
      <activity type="home" x="776814" y="5743035"/>
    </plan>
  </person>
  <!--============================================================================-->
  <person id="19">
    <plan selected="yes">
      <activity end_time="06:00:00" type="home" x="776814" y="5743035"/>
      <leg mode="car"/>
      <activity type="home" x="776814" y="5743035"/>
    </plan>
  </person>
  <!--============================================================================-->
  <person id="20">
    <plan selected="yes">
      <activity end_time="06:00:00" type="home" x="776850" y="5742664"/>
      <leg mode="car"/>
      <activity type="home" x="776850" y="5742664"/>
    </plan>
  </person>
  <!--============================================================================-->
  <person id="21">
    <plan selected="yes">
      <activity end_time="06:00:00" type="home" x="776850" y="5742664"/>
      <leg mode="car"/>
      <activity type="home" x="776850" y="5742664"/>
    </plan>
  </person>
  <!--============================================================================-->
  <person id="22">
    <plan selected="yes">
      <activity end_time="06:00:00" type="home" x="776850" y="5742664"/>
      <leg mode="car"/>
      <activity type="home" x="776850" y="5742664"/>
    </plan>
  </person>
  <!--============================================================================-->
  <person id="23">
    <plan selected="yes">
      <activity end_time="06:00:00" type="home" x="790526" y="5752137"/>
      <leg mode="car"/>
      <activity type="home" x="790526" y="5752137"/>
    </plan>
  </person>
  <!--============================================================================-->
  <person id="24">
    <plan selected="yes">
      <activity end_time="06:00:00" type="home" x="776933" y="5743589"/>
      <leg mode="car"/>
      <activity type="home" x="776933" y="5743589"/>
    </plan>
  </person>
  <!--============================================================================-->
  <person id="25">
    <plan selected="yes">
      <activity end_time="06:00:00" type="home" x="776933" y="5743589"/>
      <leg mode="car"/>
      <activity type="home" x="776933" y="5743589"/>
    </plan>
  </person>
  <!--============================================================================-->
  <person id="26">
    <plan selected="yes">
      <activity end_time="06:00:00" type="home" x="776933" y="5743589"/>
      <leg mode="car"/>
      <activity type="home" x="776933" y="5743589"/>
    </plan>
  </person>
  <!--============================================================================-->
  <person id="27">
    <plan selected="yes">
      <activity end_time="06:00:00" type="home" x="776933" y="5743589"/>
      <leg mode="car"/>
      <activity type="home" x="776933" y="5743589"/>
    </plan>
  </person>
  <!--============================================================================-->
  <person id="28">
    <plan selected="yes">
      <activity end_time="06:00:00" type="home" x="788354" y="5751334"/>
      <leg mode="car"/>
      <activity type="home" x="788354" y="5751334"/>
    </plan>
  </person>
  <!--============================================================================-->
  <person id="29">
    <plan selected="yes">
      <activity end_time="06:00:00" type="home" x="776710" y="5742443"/>
      <leg mode="car"/>
      <activity type="home" x="776710" y="5742443"/>
    </plan>
  </person>
  <!--============================================================================-->
  <person id="30">
    <plan selected="yes">
      <activity end_time="06:00:00" type="home" x="776710" y="5742443"/>
      <leg mode="car"/>
      <activity type="home" x="776710" y="5742443"/>
    </plan>
  </person>
  <!--============================================================================-->
  <person id="31">
    <plan selected="yes">
      <activity end_time="06:00:00" type="home" x="778503" y="5744483"/>
      <leg mode="car"/>
      <activity type="home" x="778503" y="5744483"/>
    </plan>
  </person>
  <!--============================================================================-->
  <person id="32">
    <plan selected="yes">
      <activity end_time="06:00:00" type="home" x="777209" y="5744555"/>
      <leg mode="car"/>
      <activity type="home" x="777209" y="5744555"/>
    </plan>
  </person>
  <!--============================================================================-->
  <person id="33">
    <plan selected="yes">
      <activity end_time="06:00:00" type="home" x="777209" y="5744555"/>
      <leg mode="car"/>
      <activity type="home" x="777209" y="5744555"/>
    </plan>
  </person>
  <!--============================================================================-->
  <person id="34">
    <plan selected="yes">
      <activity end_time="06:00:00" type="home" x="777209" y="5744555"/>
      <leg mode="car"/>
      <activity type="home" x="777209" y="5744555"/>
    </plan>
  </person>
  <!--============================================================================-->
  <person id="35">
    <plan selected="yes">
      <activity end_time="06:00:00" type="home" x="777209" y="5744555"/>
      <leg mode="car"/>
      <activity type="home" x="777209" y="5744555"/>
    </plan>
  </person>
  <!--============================================================================-->
  <person id="36">
    <plan selected="yes">
      <activity end_time="06:00:00" type="home" x="793269" y="5770588"/>
      <leg mode="car"/>
      <activity type="home" x="793269" y="5770588"/>
    </plan>
  </person>
  <!--============================================================================-->
  <person id="37">
    <plan selected="yes">
      <activity end_time="06:00:00" type="home" x="777658" y="5743903"/>
      <leg mode="car"/>
      <activity type="home" x="777658" y="5743903"/>
    </plan>
  </person>
  <!--============================================================================-->
  <person id="38">
    <plan selected="yes">
      <activity end_time="06:00:00" type="home" x="763974" y="5745597"/>
      <leg mode="car"/>
      <activity type="home" x="777658" y="5743903"/>
    </plan>
  </person>
  <!--============================================================================-->
  <person id="39">
    <plan selected="yes">
      <activity end_time="06:00:00" type="home" x="763974" y="5745597"/>
      <leg mode="car"/>
      <activity type="home" x="777658" y="5743903"/>
    </plan>
  </person>
  <!--============================================================================-->
  <person id="40">
    <plan selected="yes">
      <activity end_time="06:00:00" type="camp" x="763974" y="5745597"/>
      <leg mode="car"/>
      <activity type="camp" x="763974" y="5745597"/>
    </plan>
  </person>
  <!--============================================================================-->
  <person id="41">
    <plan selected="yes">
      <activity end_time="06:00:00" type="camp" x="763974" y="5745597"/>
      <leg mode="car"/>
      <activity type="camp" x="763974" y="5745597"/>
    </plan>
  </person>
  <!--============================================================================-->
  <person id="42">
    <plan selected="yes">
      <activity end_time="06:00:00" type="camp" x="763974" y="5745597"/>
      <leg mode="car"/>
      <activity type="camp" x="763974" y="5745597"/>
    </plan>
  </person>
  <!--============================================================================-->
  <person id="43">
    <plan selected="yes">
      <activity end_time="06:00:00" type="camp" x="763974" y="5745597"/>
      <leg mode="car"/>
      <activity type="camp" x="763974" y="5745597"/>
    </plan>
  </person>
  <!--============================================================================-->
  <person id="44">
    <plan selected="yes">
      <activity end_time="06:00:00" type="camp" x="763974" y="5745597"/>
      <leg mode="car"/>
      <activity type="camp" x="763974" y="5745597"/>
    </plan>
  </person>
  <!--============================================================================-->
  <person id="45">
    <plan selected="yes">
      <activity end_time="06:00:00" type="camp" x="763974" y="5745597"/>
      <leg mode="car"/>
      <activity type="camp" x="763974" y="5745597"/>
    </plan>
  </person>
  <!--============================================================================-->
  <person id="46">
    <plan selected="yes">
      <activity end_time="06:00:00" type="camp" x="763974" y="5745597"/>
      <leg mode="car"/>
      <activity type="camp" x="763974" y="5745597"/>
    </plan>
  </person>
  <!--============================================================================-->
  <person id="47">
    <plan selected="yes">
      <activity end_time="06:00:00" type="camp" x="763974" y="5745597"/>
      <leg mode="car"/>
      <activity type="camp" x="763974" y="5745597"/>
    </plan>
  </person>
  <!--============================================================================-->
  <person id="48">
    <plan selected="yes">
      <activity end_time="06:00:00" type="camp" x="763974" y="5745597"/>
      <leg mode="car"/>
      <activity type="camp" x="763974" y="5745597"/>
    </plan>
  </person>
  <!--============================================================================-->
  <person id="49">
    <plan selected="yes">
      <activity end_time="06:00:00" type="camp" x="763974" y="5745597"/>
      <leg mode="car"/>
      <activity type="camp" x="763974" y="5745597"/>
    </plan>
  </person> 
  <!--============================================================================-->
 <person id="50">
    <plan selected="yes">
      <activity end_time="06:00:00" type="home" x="777302" y="5744356"/>
      <leg mode="car"/>
      <activity type="home" x="777302" y="5744356"/>
    </plan>
  </person>
  <!--============================================================================-->
  <person id="51">
    <plan selected="yes">
      <activity end_time="06:00:00" type="home" x="777302" y="5744356"/>
      <leg mode="car"/>
      <activity type="home" x="777302" y="5744356"/>
    </plan>
  </person>
  <!--============================================================================-->
  <person id="52">
    <plan selected="yes">
      <activity end_time="06:00:00" type="home" x="793222" y="5769919"/>
      <leg mode="car"/>
      <activity type="home" x="793222" y="5769919"/>
    </plan>
  </person>
  <!--============================================================================-->
  <person id="53">
    <plan selected="yes">
      <activity end_time="06:00:00" type="home" x="776327" y="5743550"/>
      <leg mode="car"/>
      <activity type="home" x="776327" y="5743550"/>
    </plan>
  </person>
  <!--============================================================================-->
  <person id="54">
    <plan selected="yes">
      <activity end_time="06:00:00" type="home" x="776327" y="5743550"/>
      <leg mode="car"/>
      <activity type="home" x="776327" y="5743550"/>
    </plan>
  </person>
  <!--============================================================================-->
  <person id="55">
    <plan selected="yes">
      <activity end_time="06:00:00" type="home" x="776327" y="5743550"/>
      <leg mode="car"/>
      <activity type="home" x="776327" y="5743550"/>
    </plan>
  </person>
  <!--============================================================================-->
  <person id="56">
    <plan selected="yes">
      <activity end_time="06:00:00" type="home" x="777046" y="5742407"/>
      <leg mode="car"/>
      <activity type="home" x="777046" y="5742407"/>
    </plan>
  </person>
  <!--============================================================================-->
  <person id="57">
    <plan selected="yes">
      <activity end_time="06:00:00" type="home" x="777046" y="5742407"/>
      <leg mode="car"/>
      <activity type="home" x="777046" y="5742407"/>
    </plan>
  </person>
  <!--============================================================================-->
  <person id="58">
    <plan selected="yes">
      <activity end_time="06:00:00" type="home" x="777046" y="5742407"/>
      <leg mode="car"/>
      <activity type="home" x="777046" y="5742407"/>
    </plan>
  </person>
  <!--============================================================================-->
  <person id="59">
    <plan selected="yes">
      <activity end_time="06:00:00" type="home" x="777046" y="5742407"/>
      <leg mode="car"/>
      <activity type="home" x="777046" y="5742407"/>
    </plan>
  </person>
  <!--============================================================================-->
  <person id="60">
    <plan selected="yes">
      <activity end_time="06:00:00" type="home" x="776814" y="5743035"/>
      <leg mode="car"/>
      <activity type="home" x="776814" y="5743035"/>
    </plan>
  </person>
  <!--============================================================================-->
  <person id="61">
    <plan selected="yes">
      <activity end_time="06:00:00" type="home" x="776814" y="5743035"/>
      <leg mode="car"/>
      <activity type="home" x="776814" y="5743035"/>
    </plan>
  </person>
  <!--============================================================================-->
  <person id="62">
    <plan selected="yes">
      <activity end_time="06:00:00" type="home" x="776814" y="5743035"/>
      <leg mode="car"/>
      <activity type="home" x="776814" y="5743035"/>
    </plan>
  </person>
  <!--============================================================================-->
  <person id="63">
    <plan selected="yes">
      <activity end_time="06:00:00" type="home" x="790526" y="5752137"/>
      <leg mode="car"/>
      <activity type="home" x="790526" y="5752137"/>
    </plan>
  </person>
  <!--============================================================================-->
  <person id="64">
    <plan selected="yes">
      <activity end_time="06:00:00" type="home" x="776589" y="5743710"/>
      <leg mode="car"/>
      <activity type="home" x="776589" y="5743710"/>
    </plan>
  </person>
  <!--============================================================================-->
  <person id="65">
    <plan selected="yes">
      <activity end_time="06:00:00" type="home" x="776589" y="5743710"/>
      <leg mode="car"/>
      <activity type="home" x="776589" y="5743710"/>
    </plan>
  </person>
  <!--============================================================================-->
  <person id="66">
    <plan selected="yes">
      <activity end_time="06:00:00" type="home" x="776589" y="5743710"/>
      <leg mode="car"/>
      <activity type="home" x="776589" y="5743710"/>
    </plan>
  </person>
  <!--============================================================================-->
  <person id="67">
    <plan selected="yes">
      <activity end_time="06:00:00" type="home" x="793222" y="5769919"/>
      <leg mode="car"/>
      <activity type="home" x="793222" y="5769919"/>
    </plan>
  </person>
  <!--============================================================================-->
  <person id="68">
    <plan selected="yes">
      <activity end_time="06:00:00" type="home" x="776787" y="5743789"/>
      <leg mode="car"/>
      <activity type="home" x="776787" y="5743789"/>
    </plan>
  </person>
  <!--============================================================================-->
  <person id="69">
    <plan selected="yes">
      <activity end_time="06:00:00" type="home" x="776787" y="5743789"/>
      <leg mode="car"/>
      <activity type="home" x="776787" y="5743789"/>
    </plan>
  </person>
  <!--============================================================================-->
  <person id="70">
    <plan selected="yes">
      <activity end_time="06:00:00" type="home" x="776787" y="5743789"/>
      <leg mode="car"/>
      <activity type="home" x="776787" y="5743789"/>
    </plan>
  </person>
  <!--============================================================================-->
  <person id="71">
    <plan selected="yes">
      <activity end_time="06:00:00" type="home" x="776787" y="5743789"/>
      <leg mode="car"/>
      <activity type="home" x="776787" y="5743789"/>
    </plan>
  </person>
  <!--============================================================================-->
  <person id="72">
    <plan selected="yes">
      <activity end_time="06:00:00" type="home" x="777221" y="5743168"/>
      <leg mode="car"/>
      <activity type="home" x="777221" y="5743168"/>
    </plan>
  </person>
  <!--============================================================================-->
  <person id="73">
    <plan selected="yes">
      <activity end_time="06:00:00" type="home" x="777221" y="5743168"/>
      <leg mode="car"/>
      <activity type="home" x="777221" y="5743168"/>
    </plan>
  </person>
  <!--============================================================================-->
  <person id="74">
    <plan selected="yes">
      <activity end_time="06:00:00" type="home" x="777221" y="5743168"/>
      <leg mode="car"/>
      <activity type="home" x="777221" y="5743168"/>
    </plan>
  </person>
  <!--============================================================================-->
  <person id="75">
    <plan selected="yes">
      <activity end_time="06:00:00" type="home" x="759337" y="5729985"/>
      <leg mode="car"/>
      <activity type="home" x="759337" y="5729985"/>
    </plan>
  </person>
  <!--============================================================================-->
  <person id="76">
    <plan selected="yes">
      <activity end_time="06:00:00" type="home" x="789868" y="5752815"/>
      <leg mode="car"/>
      <activity type="home" x="789868" y="5752815"/>
    </plan>
  </person>
  <!--============================================================================-->
  <person id="77">
    <plan selected="yes">
      <activity end_time="06:00:00" type="home" x="777302" y="5744356"/>
      <leg mode="car"/>
      <activity type="home" x="777302" y="5744356"/>
    </plan>
  </person>
  <!--============================================================================-->
  <person id="78">
    <plan selected="yes">
      <activity end_time="06:00:00" type="home" x="777302" y="5744356"/>
      <leg mode="car"/>
      <activity type="home" x="777302" y="5744356"/>
    </plan>
  </person>
  <!--============================================================================-->
  <person id="79">
    <plan selected="yes">
      <activity end_time="06:00:00" type="home" x="777302" y="5744356"/>
      <leg mode="car"/>
      <activity type="home" x="777302" y="5744356"/>
    </plan>
  </person>
  <!--============================================================================-->
  <person id="80">
    <plan selected="yes">
      <activity end_time="06:00:00" type="home" x="777739" y="5744316"/>
      <leg mode="car"/>
      <activity type="home" x="777739" y="5744316"/>
    </plan>
  </person>
  <!--============================================================================-->
  <person id="81">
    <plan selected="yes">
      <activity end_time="06:00:00" type="home" x="789868" y="5752815"/>
      <leg mode="car"/>
      <activity type="home" x="789868" y="5752815"/>
    </plan>
  </person>
  <!--============================================================================-->
  <person id="82">
    <plan selected="yes">
      <activity end_time="06:00:00" type="home" x="777739" y="5744316"/>
      <leg mode="car"/>
      <activity type="home" x="777739" y="5744316"/>
    </plan>
  </person>
  <!--============================================================================-->
  <person id="83">
    <plan selected="yes">
      <activity end_time="06:00:00" type="home" x="789868" y="5752815"/>
      <leg mode="car"/>
      <activity type="home" x="789868" y="5752815"/>
    </plan>
  </person>
  <!--============================================================================-->
  <person id="84">
    <plan selected="yes">
      <activity end_time="06:00:00" type="home" x="777857" y="5743478"/>
      <leg mode="car"/>
      <activity type="home" x="777857" y="5743478"/>
    </plan>
  </person>
  <!--============================================================================-->
  <person id="85">
    <plan selected="yes">
      <activity end_time="06:00:00" type="home" x="777857" y="5743478"/>
      <leg mode="car"/>
      <activity type="home" x="777857" y="5743478"/>
    </plan>
  </person>
  <!--============================================================================-->
  <person id="86">
    <plan selected="yes">
      <activity end_time="06:00:00" type="home" x="790882" y="5752573"/>
      <leg mode="car"/>
      <activity type="home" x="790882" y="5752573"/>
    </plan>
  </person>
  <!--============================================================================-->
  <person id="87">
    <plan selected="yes">
      <activity end_time="06:00:00" type="home" x="777857" y="5743478"/>
      <leg mode="car"/>
      <activity type="home" x="777857" y="5743478"/>
    </plan>
  </person>
  <!--============================================================================-->
  <person id="88">
    <plan selected="yes">
      <activity end_time="06:00:00" type="home" x="776589" y="5743710"/>
      <leg mode="car"/>
      <activity type="home" x="776589" y="5743710"/>
    </plan>
  </person>
  <!--============================================================================-->
  <person id="89">
    <plan selected="yes">
      <activity end_time="06:00:00" type="home" x="778483" y="5744475"/>
      <leg mode="car"/>
      <activity type="home" x="778483" y="5744475"/>
    </plan>
  </person>
  <!--============================================================================-->
  <person id="90">
    <plan selected="yes">
      <activity end_time="06:00:00" type="home" x="776589" y="5743710"/>
      <leg mode="car"/>
      <activity type="home" x="776589" y="5743710"/>
    </plan>
  </person>
  <!--============================================================================-->
  <person id="91">
    <plan selected="yes">
      <activity end_time="06:00:00" type="home" x="776589" y="5743710"/>
      <leg mode="car"/>
      <activity type="home" x="776589" y="5743710"/>
    </plan>
  </person>
  <!--============================================================================-->
  <person id="92">
    <plan selected="yes">
      <activity end_time="06:00:00" type="home" x="776327" y="5743550"/>
      <leg mode="car"/>
      <activity type="home" x="776327" y="5743550"/>
    </plan>
  </person>
  <!--============================================================================-->
  <person id="93">
    <plan selected="yes">
      <activity end_time="06:00:00" type="home" x="776327" y="5743550"/>
      <leg mode="car"/>
      <activity type="home" x="776327" y="5743550"/>
    </plan>
  </person>
  <!--============================================================================-->
  <person id="94">
    <plan selected="yes">
      <activity end_time="06:00:00" type="home" x="778483" y="5744475"/>
      <leg mode="car"/>
      <activity type="home" x="778483" y="5744475"/>
    </plan>
  </person>
  <!--============================================================================-->
  <person id="95">
    <plan selected="yes">
      <activity end_time="06:00:00" type="home" x="776327" y="5743550"/>
      <leg mode="car"/>
      <activity type="home" x="776327" y="5743550"/>
    </plan>
  </person>
  <!--============================================================================-->
  <person id="96">
    <plan selected="yes">
      <activity end_time="06:00:00" type="home" x="776564" y="5744045"/>
      <leg mode="car"/>
      <activity type="home" x="776564" y="5744045"/>
    </plan>
  </person>
  <!--============================================================================-->
  <person id="97">
    <plan selected="yes">
      <activity end_time="06:00:00" type="home" x="776564" y="5744045"/>
      <leg mode="car"/>
      <activity type="home" x="776564" y="5744045"/>